New Line.l(r:p1udm1781-p1ulv2029) Units=km Length=0.00832878 bus1=p1udm1781.1.2 bus2=p1ulv2029.1.2 switch=n enabled=y phases=2 Linecode=1P_UG_AL_2/0_Converse_2

New Line.l(r:p1udm1781-p1udt483lv) Units=km Length=0.013283 bus1=p1udt483lv.1.2 bus2=p1udm1781.1.2 switch=n enabled=y phases=2 Linecode=1P_UG_AL_2/0_Converse_2

New Line.l(r:p1udm1782-p1ulv8852) Units=km Length=0.00901901 bus1=p1udm1782.1.2 bus2=p1ulv8852.1.2 switch=n enabled=y phases=2 Linecode=1P_UG_AL_1/0_Brenau_2

New Line.l(r:p1udm1782-p1udt483lv) Units=km Length=0.0164373 bus1=p1udt483lv.1.2 bus2=p1udm1782.1.2 switch=n enabled=y phases=2 Linecode=1P_UG_AL_1/0_Brenau_2

New Line.l(r:p1udt485lv-p1ulv2031) Units=km Length=0.0118394 bus1=p1udt485lv.1.2 bus2=p1ulv2031.1.2 switch=n enabled=y phases=2 Linecode=1P_UG_AL_1/0_Brenau_2

New Line.l(r:p1udt485lv-p1ulv2040) Units=km Length=0.006642 bus1=p1udt485lv.1.2 bus2=p1ulv2040.1.2 switch=n enabled=y phases=2 Linecode=1P_UG_AL_1/0_Brenau_2

New Line.l(r:p1udm1785-p1ulv2038) Units=km Length=0.00487452 bus1=p1udm1785.1.2 bus2=p1ulv2038.1.2 switch=n enabled=y phases=2 Linecode=1P_UG_AL_4/0_Sweetbriar_2

New Line.l(r:p1udm1785-p1udt485lv) Units=km Length=0.0102229 bus1=p1udt485lv.1.2 bus2=p1udm1785.1.2 switch=n enabled=y phases=2 Linecode=1P_UG_AL_4/0_Sweetbriar_2

New Line.l(r:p1udt486lv-p1ulv2033) Units=km Length=0.00670398 bus1=p1udt486lv.1.2 bus2=p1ulv2033.1.2 switch=n enabled=y phases=2 Linecode=1P_UG_AL_1/0_Brenau_2

New Line.l(r:p1udt486lv-p1ulv2042) Units=km Length=0.00662439 bus1=p1udt486lv.1.2 bus2=p1ulv2042.1.2 switch=n enabled=y phases=2 Linecode=1P_UG_AL_1/0_Brenau_2

New Line.l(r:p1udm1789-p1ulv2041) Units=km Length=0.004628880000000001 bus1=p1udm1789.1.2 bus2=p1ulv2041.1.2 switch=n enabled=y phases=2 Linecode=1P_UG_AL_1/0_Brenau_2

New Line.l(r:p1udm1787-p1ulv2032) Units=km Length=0.004909760000000001 bus1=p1udm1787.1.2 bus2=p1ulv2032.1.2 switch=n enabled=y phases=2 Linecode=1P_UG_AL_1/0_Brenau_2

New Line.l(r:p1udm1787-p1udm1789) Units=km Length=0.0156791 bus1=p1udm1789.1.2 bus2=p1udm1787.1.2 switch=n enabled=y phases=2 Linecode=1P_UG_AL_1/0_Brenau_2

New Line.l(r:p1udm1789-p1udt486lv) Units=km Length=0.025476 bus1=p1udt486lv.1.2 bus2=p1udm1789.1.2 switch=n enabled=y phases=2 Linecode=1P_UG_AL_4/0_Sweetbriar_2

New Line.l(r:p1udm1791-p1ulv2043) Units=km Length=0.006843 bus1=p1udm1791.1.2 bus2=p1ulv2043.1.2 switch=n enabled=y phases=2 Linecode=1P_UG_AL_1/0_Brenau_2

New Line.l(r:p1udm1791-p1udt486lv) Units=km Length=0.009347820000000001 bus1=p1udt486lv.1.2 bus2=p1udm1791.1.2 switch=n enabled=y phases=2 Linecode=1P_UG_AL_1/0_Brenau_2

New Line.l(r:p1udt487lv-p1ulv2035) Units=km Length=0.005353590000000001 bus1=p1udt487lv.1.2 bus2=p1ulv2035.1.2 switch=n enabled=y phases=2 Linecode=1P_UG_AL_1/0_Brenau_2

New Line.l(r:p1udm1792-p1ulv2034) Units=km Length=0.00691383 bus1=p1udm1792.1.2 bus2=p1ulv2034.1.2 switch=n enabled=y phases=2 Linecode=1P_UG_AL_1/0_Brenau_2

New Line.l(r:p1udm1792-p1ulv2044) Units=km Length=0.00705932 bus1=p1udm1792.1.2 bus2=p1ulv2044.1.2 switch=n enabled=y phases=2 Linecode=1P_UG_AL_1/0_Brenau_2

New Line.l(r:p1udm1792-p1udt487lv) Units=km Length=0.00892551 bus1=p1udt487lv.1.2 bus2=p1udm1792.1.2 switch=n enabled=y phases=2 Linecode=1P_UG_AL_4/0_Sweetbriar_2

New Line.l(r:p1udm1794-p1ulv2036) Units=km Length=0.00489818 bus1=p1udm1794.1.2 bus2=p1ulv2036.1.2 switch=n enabled=y phases=2 Linecode=1P_UG_AL_1/0_Brenau_2

New Line.l(r:p1udm1795-p1ulv2037) Units=km Length=0.00812118 bus1=p1udm1795.1.2 bus2=p1ulv2037.1.2 switch=n enabled=y phases=2 Linecode=1P_UG_AL_1/0_Brenau_2

New Line.l(r:p1udm1794-p1udm1795) Units=km Length=0.0150433 bus1=p1udm1794.1.2 bus2=p1udm1795.1.2 switch=n enabled=y phases=2 Linecode=1P_UG_AL_1/0_Brenau_2

New Line.l(r:p1udm1794-p1udt487lv) Units=km Length=0.00633297 bus1=p1udt487lv.1.2 bus2=p1udm1794.1.2 switch=n enabled=y phases=2 Linecode=1P_UG_AL_4/0_Sweetbriar_2

New Line.l(r:p1udt488lv-p1ulv2051) Units=km Length=0.00419154 bus1=p1udt488lv.1.2 bus2=p1ulv2051.1.2 switch=n enabled=y phases=2 Linecode=1P_UG_AL_1/0_Brenau_2

New Line.l(r:p1udm1797-p1ulv2045) Units=km Length=0.00543457 bus1=p1udm1797.1.2 bus2=p1ulv2045.1.2 switch=n enabled=y phases=2 Linecode=1P_UG_AL_1/0_Brenau_2

New Line.l(r:p1udm1797-p1ulv2052) Units=km Length=0.00408795 bus1=p1udm1797.1.2 bus2=p1ulv2052.1.2 switch=n enabled=y phases=2 Linecode=1P_UG_AL_4/0_Sweetbriar_2

New Line.l(r:p1udm1797-p1udt488lv) Units=km Length=0.00857581 bus1=p1udt488lv.1.2 bus2=p1udm1797.1.2 switch=n enabled=y phases=2 Linecode=1P_UG_AL_4/0_Sweetbriar_2

New Line.l(r:p1udm1798-p1ulv2050) Units=km Length=0.00424577 bus1=p1udm1798.1.2 bus2=p1ulv2050.1.2 switch=n enabled=y phases=2 Linecode=1P_UG_AL_1/0_Brenau_2

New Line.l(r:p1udm1798-p1udt488lv) Units=km Length=0.00856711 bus1=p1udt488lv.1.2 bus2=p1udm1798.1.2 switch=n enabled=y phases=2 Linecode=1P_UG_AL_1/0_Brenau_2

New Line.l(r:p1udt489lv-p1ulv2047) Units=km Length=0.00450521 bus1=p1udt489lv.1.2 bus2=p1ulv2047.1.2 switch=n enabled=y phases=2 Linecode=1P_UG_AL_1/0_Brenau_2

New Line.l(r:p1udt489lv-p1ulv8865) Units=km Length=0.00647436 bus1=p1udt489lv.1.2 bus2=p1ulv8865.1.2 switch=n enabled=y phases=2 Linecode=1P_UG_AL_4/0_Sweetbriar_2

New Line.l(r:p1udm1801-p1ulv2046) Units=km Length=0.00440965 bus1=p1udm1801.1.2 bus2=p1ulv2046.1.2 switch=n enabled=y phases=2 Linecode=1P_UG_AL_1/0_Brenau_2

New Line.l(r:p1udm1804-p1ulv2049) Units=km Length=0.00432083 bus1=p1udm1804.1.2 bus2=p1ulv2049.1.2 switch=n enabled=y phases=2 Linecode=1P_UG_AL_1/0_Brenau_2

New Line.l(r:p1udm1801-p1udm1804) Units=km Length=0.00856711 bus1=p1udm1801.1.2 bus2=p1udm1804.1.2 switch=n enabled=y phases=2 Linecode=1P_UG_AL_1/0_Brenau_2

New Line.l(r:p1udm1801-p1udt489lv) Units=km Length=0.00857581 bus1=p1udt489lv.1.2 bus2=p1udm1801.1.2 switch=n enabled=y phases=2 Linecode=1P_UG_AL_4/0_Sweetbriar_2

New Line.l(r:p1udm1803-p1ulv2048) Units=km Length=0.00735541 bus1=p1udm1803.1.2 bus2=p1ulv2048.1.2 switch=n enabled=y phases=2 Linecode=1P_UG_AL_1/0_Brenau_2

New Line.l(r:p1udm1803-p1udt489lv) Units=km Length=0.00812419 bus1=p1udt489lv.1.2 bus2=p1udm1803.1.2 switch=n enabled=y phases=2 Linecode=1P_UG_AL_1/0_Brenau_2

New Line.l(r:p1udt490lv-p1ulv2055) Units=km Length=0.00559047 bus1=p1udt490lv.1.2 bus2=p1ulv2055.1.2 switch=n enabled=y phases=2 Linecode=1P_UG_AL_1/0_Brenau_2

New Line.l(r:p1udm1806-p1ulv2054) Units=km Length=0.00409542 bus1=p1udm1806.1.2 bus2=p1ulv2054.1.2 switch=n enabled=y phases=2 Linecode=1P_UG_AL_1/0_Brenau_2

New Line.l(r:p1udm1806-p1udt490lv) Units=km Length=0.0135324 bus1=p1udt490lv.1.2 bus2=p1udm1806.1.2 switch=n enabled=y phases=2 Linecode=1P_UG_AL_1/0_Brenau_2

New Line.l(r:p1udm1808-p1ulv2056) Units=km Length=0.00554463 bus1=p1udm1808.1.2 bus2=p1ulv2056.1.2 switch=n enabled=y phases=2 Linecode=1P_UG_AL_1/0_Brenau_2

New Line.l(r:p1udm1808-p1ulv2057) Units=km Length=0.00679265 bus1=p1udm1808.1.2 bus2=p1ulv2057.1.2 switch=n enabled=y phases=2 Linecode=1P_UG_AL_1/0_Brenau_2

New Line.l(r:p1udm1808-p1udt490lv) Units=km Length=0.008641670000000002 bus1=p1udt490lv.1.2 bus2=p1udm1808.1.2 switch=n enabled=y phases=2 Linecode=1P_UG_AL_4/0_Sweetbriar_2

New Line.l(r:p1udt491lv-p1ulv2070) Units=km Length=0.00607695 bus1=p1udt491lv.1.2 bus2=p1ulv2070.1.2 switch=n enabled=y phases=2 Linecode=1P_UG_AL_1/0_Brenau_2

New Line.l(r:p1udt491lv-p1ulv2077) Units=km Length=0.00360855 bus1=p1udt491lv.1.2 bus2=p1ulv2077.1.2 switch=n enabled=y phases=2 Linecode=1P_UG_AL_1/0_Brenau_2

New Line.l(r:p1udm1812-p1ulv2068) Units=km Length=0.006220490000000001 bus1=p1udm1812.1.2 bus2=p1ulv2068.1.2 switch=n enabled=y phases=2 Linecode=1P_UG_AL_1/0_Brenau_2

New Line.l(r:p1udm1812-p1ulv2078) Units=km Length=0.00369314 bus1=p1udm1812.1.2 bus2=p1ulv2078.1.2 switch=n enabled=y phases=2 Linecode=1P_UG_AL_1/0_Brenau_2

New Line.l(r:p1udm1821-p1ulv2079) Units=km Length=0.00348264 bus1=p1udm1821.1.2 bus2=p1ulv2079.1.2 switch=n enabled=y phases=2 Linecode=1P_UG_AL_1/0_Brenau_2

New Line.l(r:p1udm1811-p1ulv2067) Units=km Length=0.0054654 bus1=p1udm1811.1.2 bus2=p1ulv2067.1.2 switch=n enabled=y phases=2 Linecode=1P_UG_AL_1/0_Brenau_2

New Line.l(r:p1udm1822-p1ulv4254) Units=km Length=0.005970470000000001 bus1=p1udm1822.1.2 bus2=p1ulv4254.1.2 switch=n enabled=y phases=2 Linecode=1P_UG_AL_1/0_Brenau_2

New Line.l(r:p1udm1810-p1ulv2058) Units=km Length=0.00569972 bus1=p1udm1810.1.2 bus2=p1ulv2058.1.2 switch=n enabled=y phases=2 Linecode=1P_UG_AL_1/0_Brenau_2

New Line.l(r:p1udm1810-p1udm1822) Units=km Length=0.00657304 bus1=p1udm1822.1.2 bus2=p1udm1810.1.2 switch=n enabled=y phases=2 Linecode=1P_UG_AL_1/0_Brenau_2

New Line.l(r:p1udm1811-p1udm1822) Units=km Length=0.00595779 bus1=p1udm1811.1.2 bus2=p1udm1822.1.2 switch=n enabled=y phases=2 Linecode=1P_UG_AL_1/0_Brenau_2

New Line.l(r:p1udm1811-p1udm1821) Units=km Length=0.00603212 bus1=p1udm1821.1.2 bus2=p1udm1811.1.2 switch=n enabled=y phases=2 Linecode=1P_UG_AL_1/0_Brenau_2

New Line.l(r:p1udm1812-p1udm1821) Units=km Length=0.00997573 bus1=p1udm1812.1.2 bus2=p1udm1821.1.2 switch=n enabled=y phases=2 Linecode=1P_UG_AL_2/0_Converse_2

New Line.l(r:p1udm1812-p1udt491lv) Units=km Length=0.00997409 bus1=p1udt491lv.1.2 bus2=p1udm1812.1.2 switch=n enabled=y phases=2 Linecode=1P_UG_AL_4/0_Sweetbriar_2

New Line.l(r:p1udm1814-p1ulv2071) Units=km Length=0.00616173 bus1=p1udm1814.1.2 bus2=p1ulv2071.1.2 switch=n enabled=y phases=2 Linecode=1P_UG_AL_1/0_Brenau_2

New Line.l(r:p1udm1814-p1ulv2076) Units=km Length=0.0041331 bus1=p1udm1814.1.2 bus2=p1ulv2076.1.2 switch=n enabled=y phases=2 Linecode=1P_UG_AL_1/0_Brenau_2

New Line.l(r:p1udm1815-p1ulv2072) Units=km Length=0.00595187 bus1=p1udm1815.1.2 bus2=p1ulv2072.1.2 switch=n enabled=y phases=2 Linecode=1P_UG_AL_1/0_Brenau_2

New Line.l(r:p1udm1815-p1ulv2074) Units=km Length=0.00391184 bus1=p1udm1815.1.2 bus2=p1ulv2074.1.2 switch=n enabled=y phases=2 Linecode=1P_UG_AL_1/0_Brenau_2

New Line.l(r:p1udm1816-p1ulv2073) Units=km Length=0.00586223 bus1=p1udm1816.1.2 bus2=p1ulv2073.1.2 switch=n enabled=y phases=2 Linecode=1P_UG_AL_1/0_Brenau_2

New Line.l(r:p1udm1815-p1udm1816) Units=km Length=0.00997409 bus1=p1udm1815.1.2 bus2=p1udm1816.1.2 switch=n enabled=y phases=2 Linecode=1P_UG_AL_1/0_Brenau_2

New Line.l(r:p1udm1814-p1udm1815) Units=km Length=0.00997573 bus1=p1udm1814.1.2 bus2=p1udm1815.1.2 switch=n enabled=y phases=2 Linecode=1P_UG_AL_2/0_Converse_2

New Line.l(r:p1udm1814-p1udt491lv) Units=km Length=0.00997409 bus1=p1udt491lv.1.2 bus2=p1udm1814.1.2 switch=n enabled=y phases=2 Linecode=1P_UG_AL_4/0_Sweetbriar_2

New Line.l(r:p1udt492lv-p1ulv2063) Units=km Length=0.00565673 bus1=p1udt492lv.1.2 bus2=p1ulv2063.1.2 switch=n enabled=y phases=2 Linecode=1P_UG_AL_1/0_Brenau_2

New Line.l(r:p1udt492lv-p1ulv4249) Units=km Length=0.00562968 bus1=p1udt492lv.1.2 bus2=p1ulv4249.1.2 switch=n enabled=y phases=2 Linecode=1P_UG_AL_1/0_Brenau_2

New Line.l(r:p1udm1825-p1ulv2061) Units=km Length=0.00558073 bus1=p1udm1825.1.2 bus2=p1ulv2061.1.2 switch=n enabled=y phases=2 Linecode=1P_UG_AL_1/0_Brenau_2

New Line.l(r:p1udm1825-p1ulv4250) Units=km Length=0.00507279 bus1=p1udm1825.1.2 bus2=p1ulv4250.1.2 switch=n enabled=y phases=2 Linecode=1P_UG_AL_1/0_Brenau_2

New Line.l(r:p1udm1824-p1ulv2060) Units=km Length=0.005737750000000001 bus1=p1udm1824.1.2 bus2=p1ulv2060.1.2 switch=n enabled=y phases=2 Linecode=1P_UG_AL_1/0_Brenau_2

New Line.l(r:p1udm1824-p1ulv4251) Units=km Length=0.00459762 bus1=p1udm1824.1.2 bus2=p1ulv4251.1.2 switch=n enabled=y phases=2 Linecode=1P_UG_AL_1/0_Brenau_2

New Line.l(r:p1udm1823-p1ulv2059) Units=km Length=0.00553073 bus1=p1udm1823.1.2 bus2=p1ulv2059.1.2 switch=n enabled=y phases=2 Linecode=1P_UG_AL_1/0_Brenau_2

New Line.l(r:p1udm1823-p1ulv4253) Units=km Length=0.00522067 bus1=p1udm1823.1.2 bus2=p1ulv4253.1.2 switch=n enabled=y phases=2 Linecode=1P_UG_AL_1/0_Brenau_2

New Line.l(r:p1udm1823-p1udm1824) Units=km Length=0.00977885 bus1=p1udm1824.1.2 bus2=p1udm1823.1.2 switch=n enabled=y phases=2 Linecode=1P_UG_AL_1/0_Brenau_2

New Line.l(r:p1udm1824-p1udm1825) Units=km Length=0.0097737 bus1=p1udm1825.1.2 bus2=p1udm1824.1.2 switch=n enabled=y phases=2 Linecode=1P_UG_AL_2/0_Converse_2

New Line.l(r:p1udm1825-p1udt492lv) Units=km Length=0.00977885 bus1=p1udt492lv.1.2 bus2=p1udm1825.1.2 switch=n enabled=y phases=2 Linecode=1P_UG_AL_4/0_Sweetbriar_2

New Line.l(r:p1udm1827-p1ulv2064) Units=km Length=0.00564904 bus1=p1udm1827.1.2 bus2=p1ulv2064.1.2 switch=n enabled=y phases=2 Linecode=1P_UG_AL_1/0_Brenau_2

New Line.l(r:p1udm1827-p1ulv4246) Units=km Length=0.0104519 bus1=p1udm1827.1.2 bus2=p1ulv4246.1.2 switch=n enabled=y phases=2 Linecode=1P_UG_AL_1/0_Brenau_2

New Line.l(r:p1udm1827-p1ulv4248) Units=km Length=0.00449013 bus1=p1udm1827.1.2 bus2=p1ulv4248.1.2 switch=n enabled=y phases=2 Linecode=1P_UG_AL_1/0_Brenau_2

New Line.l(r:p1udm1828-p1ulv2065) Units=km Length=0.005595590000000001 bus1=p1udm1828.1.2 bus2=p1ulv2065.1.2 switch=n enabled=y phases=2 Linecode=1P_UG_AL_1/0_Brenau_2

New Line.l(r:p1udm1835-p1ulv4263) Units=km Length=0.0106909 bus1=p1udm1835.1.2 bus2=p1ulv4263.1.2 switch=n enabled=y phases=2 Linecode=1P_UG_AL_1/0_Brenau_2

New Line.l(r:p1udm1828-p1udm1835) Units=km Length=0.0293263 bus1=p1udm1828.1.2 bus2=p1udm1835.1.2 switch=n enabled=y phases=2 Linecode=1P_UG_AL_1/0_Brenau_2

New Line.l(r:p1udm1827-p1udm1828) Units=km Length=0.00977885 bus1=p1udm1827.1.2 bus2=p1udm1828.1.2 switch=n enabled=y phases=2 Linecode=1P_UG_AL_1/0_Brenau_2

New Line.l(r:p1udm1827-p1udt492lv) Units=km Length=0.0097737 bus1=p1udt492lv.1.2 bus2=p1udm1827.1.2 switch=n enabled=y phases=2 Linecode=1P_UG_AL_2/0_Converse_2

New Line.l(r:p1udt493lv-p1ulv4241) Units=km Length=0.00489699 bus1=p1udt493lv.1.2 bus2=p1ulv4241.1.2 switch=n enabled=y phases=2 Linecode=1P_UG_AL_1/0_Brenau_2

New Line.l(r:p1udt493lv-p1ulv4255) Units=km Length=0.0109749 bus1=p1udt493lv.1.2 bus2=p1ulv4255.1.2 switch=n enabled=y phases=2 Linecode=1P_UG_AL_1/0_Brenau_2

New Line.l(r:p1udm1836-p1ulv2081) Units=km Length=0.0110627 bus1=p1udm1836.1.2 bus2=p1ulv2081.1.2 switch=n enabled=y phases=2 Linecode=1P_UG_AL_1/0_Brenau_2

New Line.l(r:p1udm1838-p1ulv2083) Units=km Length=0.00571018 bus1=p1udm1838.1.2 bus2=p1ulv2083.1.2 switch=n enabled=y phases=2 Linecode=1P_UG_AL_1/0_Brenau_2

New Line.l(r:p1udm1837-p1ulv2082) Units=km Length=0.00566509 bus1=p1udm1837.1.2 bus2=p1ulv2082.1.2 switch=n enabled=y phases=2 Linecode=1P_UG_AL_1/0_Brenau_2

New Line.l(r:p1udm1839-p1ulv2084) Units=km Length=0.00547366 bus1=p1udm1839.1.2 bus2=p1ulv2084.1.2 switch=n enabled=y phases=2 Linecode=1P_UG_AL_1/0_Brenau_2

New Line.l(r:p1udm1837-p1udm1839) Units=km Length=0.0149506 bus1=p1udm1837.1.2 bus2=p1udm1839.1.2 switch=n enabled=y phases=2 Linecode=1P_UG_AL_1/0_Brenau_2

New Line.l(r:p1udm1837-p1udm1838) Units=km Length=0.017938500000000003 bus1=p1udm1838.1.2 bus2=p1udm1837.1.2 switch=n enabled=y phases=2 Linecode=1P_UG_AL_1/0_Brenau_2

New Line.l(r:p1udm1836-p1udm1838) Units=km Length=0.00683638 bus1=p1udm1836.1.2 bus2=p1udm1838.1.2 switch=n enabled=y phases=2 Linecode=1P_UG_AL_4/0_Sweetbriar_2

New Line.l(r:p1udm1836-p1udt493lv) Units=km Length=0.0216418 bus1=p1udt493lv.1.2 bus2=p1udm1836.1.2 switch=n enabled=y phases=2 Linecode=1P_UG_AL_4/0_Sweetbriar_2

New Line.l(r:p1udm1842-p1ulv4242) Units=km Length=0.00562996 bus1=p1udm1842.1.2 bus2=p1ulv4242.1.2 switch=n enabled=y phases=2 Linecode=1P_UG_AL_1/0_Brenau_2

New Line.l(r:p1udm1840-p1ulv4239) Units=km Length=0.0150094 bus1=p1udm1840.1.2 bus2=p1ulv4239.1.2 switch=n enabled=y phases=2 Linecode=1P_UG_AL_1/0_Brenau_2

New Line.l(r:p1udm1843-p1ulv4243) Units=km Length=0.005357280000000001 bus1=p1udm1843.1.2 bus2=p1ulv4243.1.2 switch=n enabled=y phases=2 Linecode=1P_UG_AL_1/0_Brenau_2

New Line.l(r:p1udm1844-p1ulv4244) Units=km Length=0.00705056 bus1=p1udm1844.1.2 bus2=p1ulv4244.1.2 switch=n enabled=y phases=2 Linecode=1P_UG_AL_1/0_Brenau_2

New Line.l(r:p1udm1845-p1ulv4247) Units=km Length=0.0107001 bus1=p1udm1845.1.2 bus2=p1ulv4247.1.2 switch=n enabled=y phases=2 Linecode=1P_UG_AL_1/0_Brenau_2

New Line.l(r:p1udm1844-p1udm1845) Units=km Length=0.0171056 bus1=p1udm1844.1.2 bus2=p1udm1845.1.2 switch=n enabled=y phases=2 Linecode=1P_UG_AL_1/0_Brenau_2

New Line.l(r:p1udm1843-p1udm1844) Units=km Length=0.0085555 bus1=p1udm1843.1.2 bus2=p1udm1844.1.2 switch=n enabled=y phases=2 Linecode=1P_UG_AL_1/0_Brenau_2

New Line.l(r:p1udm1840-p1udm1843) Units=km Length=0.00855013 bus1=p1udm1840.1.2 bus2=p1udm1843.1.2 switch=n enabled=y phases=2 Linecode=1P_UG_AL_1/0_Brenau_2

New Line.l(r:p1udm1840-p1udm1842) Units=km Length=0.00757956 bus1=p1udm1842.1.2 bus2=p1udm1840.1.2 switch=n enabled=y phases=2 Linecode=1P_UG_AL_1/0_Brenau_2

New Line.l(r:p1udm1842-p1udt493lv) Units=km Length=0.0152457 bus1=p1udt493lv.1.2 bus2=p1udm1842.1.2 switch=n enabled=y phases=2 Linecode=1P_UG_AL_1/0_Brenau_2

New Line.l(r:p1udt494lv-p1ulv2460) Units=km Length=0.0112694 bus1=p1udt494lv.1.2 bus2=p1ulv2460.1.2 switch=n enabled=y phases=2 Linecode=1P_UG_AL_1/0_Brenau_2

New Line.l(r:p1udm1852-p1ulv2459) Units=km Length=0.0120965 bus1=p1udm1852.1.2 bus2=p1ulv2459.1.2 switch=n enabled=y phases=2 Linecode=1P_UG_AL_1/0_Brenau_2

New Line.l(r:p1udm1852-p1ulv8805) Units=km Length=0.0123092 bus1=p1udm1852.1.2 bus2=p1ulv8805.1.2 switch=n enabled=y phases=2 Linecode=1P_UG_AL_1/0_Brenau_2

New Line.l(r:p1udm1851-p1ulv2458) Units=km Length=0.0113438 bus1=p1udm1851.1.2 bus2=p1ulv2458.1.2 switch=n enabled=y phases=2 Linecode=1P_UG_AL_1/0_Brenau_2

New Line.l(r:p1udm1851-p1ulv8804) Units=km Length=0.012144700000000001 bus1=p1udm1851.1.2 bus2=p1ulv8804.1.2 switch=n enabled=y phases=2 Linecode=1P_UG_AL_1/0_Brenau_2

New Line.l(r:p1udm1857-p1ulv8802) Units=km Length=0.0120652 bus1=p1udm1857.1.2 bus2=p1ulv8802.1.2 switch=n enabled=y phases=2 Linecode=1P_UG_AL_1/0_Brenau_2

New Line.l(r:p1udm1849-p1ulv2087) Units=km Length=0.010564300000000002 bus1=p1udm1849.1.2 bus2=p1ulv2087.1.2 switch=n enabled=y phases=2 Linecode=1P_UG_AL_1/0_Brenau_2

New Line.l(r:p1udm1849-p1ulv2469) Units=km Length=0.011682500000000002 bus1=p1udm1849.1.2 bus2=p1ulv2469.1.2 switch=n enabled=y phases=2 Linecode=1P_UG_AL_1/0_Brenau_2

New Line.l(r:p1udm1847-p1ulv2085) Units=km Length=0.0107613 bus1=p1udm1847.1.2 bus2=p1ulv2085.1.2 switch=n enabled=y phases=2 Linecode=1P_UG_AL_1/0_Brenau_2

New Line.l(r:p1udm1847-p1ulv2086) Units=km Length=0.0144965 bus1=p1udm1847.1.2 bus2=p1ulv2086.1.2 switch=n enabled=y phases=2 Linecode=1P_UG_AL_1/0_Brenau_2

New Line.l(r:p1udm1847-p1udm1849) Units=km Length=0.0095095 bus1=p1udm1849.1.2 bus2=p1udm1847.1.2 switch=n enabled=y phases=2 Linecode=1P_UG_AL_1/0_Brenau_2

New Line.l(r:p1udm1849-p1udm1857) Units=km Length=0.0095095 bus1=p1udm1857.1.2 bus2=p1udm1849.1.2 switch=n enabled=y phases=2 Linecode=1P_UG_AL_2/0_Converse_2

New Line.l(r:p1udm1851-p1udm1857) Units=km Length=0.00951912 bus1=p1udm1851.1.2 bus2=p1udm1857.1.2 switch=n enabled=y phases=2 Linecode=1P_UG_AL_2/0_Converse_2

New Line.l(r:p1udm1851-p1udm1852) Units=km Length=0.00950678 bus1=p1udm1852.1.2 bus2=p1udm1851.1.2 switch=n enabled=y phases=2 Linecode=1P_UG_AL_4/0_Sweetbriar_2

New Line.l(r:p1udm1852-p1udt494lv) Units=km Length=0.0095095 bus1=p1udt494lv.1.2 bus2=p1udm1852.1.2 switch=n enabled=y phases=2 Linecode=1P_UG_AL_4/0_Sweetbriar_2

New Line.l(r:p1udm1854-p1ulv2461) Units=km Length=0.0118125 bus1=p1udm1854.1.2 bus2=p1ulv2461.1.2 switch=n enabled=y phases=2 Linecode=1P_UG_AL_1/0_Brenau_2

New Line.l(r:p1udm1854-p1ulv8808) Units=km Length=0.0118077 bus1=p1udm1854.1.2 bus2=p1ulv8808.1.2 switch=n enabled=y phases=2 Linecode=1P_UG_AL_1/0_Brenau_2

New Line.l(r:p1udm1861-p1ulv8810) Units=km Length=0.0119631 bus1=p1udm1861.1.2 bus2=p1ulv8810.1.2 switch=n enabled=y phases=2 Linecode=1P_UG_AL_1/0_Brenau_2

New Line.l(r:p1udm1862-p1ulv8816) Units=km Length=0.0120516 bus1=p1udm1862.1.2 bus2=p1ulv8816.1.2 switch=n enabled=y phases=2 Linecode=1P_UG_AL_1/0_Brenau_2

New Line.l(r:p1udm1862-p1ulv8817) Units=km Length=0.013508 bus1=p1udm1862.1.2 bus2=p1ulv8817.1.2 switch=n enabled=y phases=2 Linecode=1P_UG_AL_1/0_Brenau_2

New Line.l(r:p1udm1850-p1ulv2096) Units=km Length=0.0124299 bus1=p1udm1850.1.2 bus2=p1ulv2096.1.2 switch=n enabled=y phases=2 Linecode=1P_UG_AL_1/0_Brenau_2

New Line.l(r:p1udm1850-p1ulv8585) Units=km Length=0.011639400000000001 bus1=p1udm1850.1.2 bus2=p1ulv8585.1.2 switch=n enabled=y phases=2 Linecode=1P_UG_AL_1/0_Brenau_2

New Line.l(r:p1udm1850-p1udm1862) Units=km Length=0.00950678 bus1=p1udm1862.1.2 bus2=p1udm1850.1.2 switch=n enabled=y phases=2 Linecode=1P_UG_AL_1/0_Brenau_2

New Line.l(r:p1udm1861-p1udm1862) Units=km Length=0.0095095 bus1=p1udm1861.1.2 bus2=p1udm1862.1.2 switch=n enabled=y phases=2 Linecode=1P_UG_AL_1/0_Brenau_2

New Line.l(r:p1udm1854-p1udm1861) Units=km Length=0.00951912 bus1=p1udm1854.1.2 bus2=p1udm1861.1.2 switch=n enabled=y phases=2 Linecode=1P_UG_AL_1/0_Brenau_2

New Line.l(r:p1udm1854-p1udt494lv) Units=km Length=0.0095095 bus1=p1udt494lv.1.2 bus2=p1udm1854.1.2 switch=n enabled=y phases=2 Linecode=1P_UG_AL_4/0_Sweetbriar_2

New Line.l(r:p1udt495lv-p1ulv2091) Units=km Length=0.012575700000000002 bus1=p1udt495lv.1.2 bus2=p1ulv2091.1.2 switch=n enabled=y phases=2 Linecode=1P_UG_AL_1/0_Brenau_2

New Line.l(r:p1udt495lv-p1ulv4237) Units=km Length=0.0123096 bus1=p1udt495lv.1.2 bus2=p1ulv4237.1.2 switch=n enabled=y phases=2 Linecode=1P_UG_AL_1/0_Brenau_2

New Line.l(r:p1udm1865-p1ulv2089) Units=km Length=0.0125076 bus1=p1udm1865.1.2 bus2=p1ulv2089.1.2 switch=n enabled=y phases=2 Linecode=1P_UG_AL_1/0_Brenau_2

New Line.l(r:p1udm1865-p1ulv4235) Units=km Length=0.0121729 bus1=p1udm1865.1.2 bus2=p1ulv4235.1.2 switch=n enabled=y phases=2 Linecode=1P_UG_AL_1/0_Brenau_2

New Line.l(r:p1udm1864-p1ulv2088) Units=km Length=0.0125976 bus1=p1udm1864.1.2 bus2=p1ulv2088.1.2 switch=n enabled=y phases=2 Linecode=1P_UG_AL_1/0_Brenau_2

New Line.l(r:p1udm1864-p1ulv4234) Units=km Length=0.012267400000000001 bus1=p1udm1864.1.2 bus2=p1ulv4234.1.2 switch=n enabled=y phases=2 Linecode=1P_UG_AL_1/0_Brenau_2

New Line.l(r:p1udm1868-p1ulv2093) Units=km Length=0.0125931 bus1=p1udm1868.1.2 bus2=p1ulv2093.1.2 switch=n enabled=y phases=2 Linecode=1P_UG_AL_1/0_Brenau_2

New Line.l(r:p1udm1868-p1ulv4233) Units=km Length=0.0127319 bus1=p1udm1868.1.2 bus2=p1ulv4233.1.2 switch=n enabled=y phases=2 Linecode=1P_UG_AL_1/0_Brenau_2

New Line.l(r:p1udm1864-p1udm1868) Units=km Length=0.00979798 bus1=p1udm1864.1.2 bus2=p1udm1868.1.2 switch=n enabled=y phases=2 Linecode=1P_UG_AL_1/0_Brenau_2

New Line.l(r:p1udm1864-p1udm1865) Units=km Length=0.00979798 bus1=p1udm1865.1.2 bus2=p1udm1864.1.2 switch=n enabled=y phases=2 Linecode=1P_UG_AL_1/0_Brenau_2

New Line.l(r:p1udm1865-p1udt495lv) Units=km Length=0.00979527 bus1=p1udt495lv.1.2 bus2=p1udm1865.1.2 switch=n enabled=y phases=2 Linecode=1P_UG_AL_4/0_Sweetbriar_2

New Line.l(r:p1udm1867-p1ulv2092) Units=km Length=0.0130224 bus1=p1udm1867.1.2 bus2=p1ulv2092.1.2 switch=n enabled=y phases=2 Linecode=1P_UG_AL_1/0_Brenau_2

New Line.l(r:p1udm1867-p1ulv4238) Units=km Length=0.0117225 bus1=p1udm1867.1.2 bus2=p1ulv4238.1.2 switch=n enabled=y phases=2 Linecode=1P_UG_AL_1/0_Brenau_2

New Line.l(r:p1udm1874-p1ulv4240) Units=km Length=0.0127047 bus1=p1udm1874.1.2 bus2=p1ulv4240.1.2 switch=n enabled=y phases=2 Linecode=1P_UG_AL_1/0_Brenau_2

New Line.l(r:p1udm1874-p1ulv8797) Units=km Length=0.0140769 bus1=p1udm1874.1.2 bus2=p1ulv8797.1.2 switch=n enabled=y phases=2 Linecode=1P_UG_AL_1/0_Brenau_2

New Line.l(r:p1udm1867-p1udm1874) Units=km Length=0.00979798 bus1=p1udm1867.1.2 bus2=p1udm1874.1.2 switch=n enabled=y phases=2 Linecode=1P_UG_AL_1/0_Brenau_2

New Line.l(r:p1udm1867-p1udt495lv) Units=km Length=0.009807610000000001 bus1=p1udt495lv.1.2 bus2=p1udm1867.1.2 switch=n enabled=y phases=2 Linecode=1P_UG_AL_1/0_Brenau_2

New Line.l(r:p1udt496lv-p1ulv8657) Units=km Length=0.013483100000000001 bus1=p1udt496lv.1.2 bus2=p1ulv8657.1.2 switch=n enabled=y phases=2 Linecode=1P_UG_AL_1/0_Brenau_2

New Line.l(r:p1udt496lv-p1ulv8747) Units=km Length=0.012809200000000001 bus1=p1udt496lv.1.2 bus2=p1ulv8747.1.2 switch=n enabled=y phases=2 Linecode=1P_UG_AL_1/0_Brenau_2

New Line.l(r:p1udm1879-p1ulv4228) Units=km Length=0.012133800000000002 bus1=p1udm1879.1.2 bus2=p1ulv4228.1.2 switch=n enabled=y phases=2 Linecode=1P_UG_AL_1/0_Brenau_2

New Line.l(r:p1udm1879-p1ulv8659) Units=km Length=0.0135242 bus1=p1udm1879.1.2 bus2=p1ulv8659.1.2 switch=n enabled=y phases=2 Linecode=1P_UG_AL_1/0_Brenau_2

New Line.l(r:p1udm1885-p1ulv8661) Units=km Length=0.0136381 bus1=p1udm1885.1.2 bus2=p1ulv8661.1.2 switch=n enabled=y phases=2 Linecode=1P_UG_AL_1/0_Brenau_2

New Line.l(r:p1udm1878-p1ulv4226) Units=km Length=0.0124164 bus1=p1udm1878.1.2 bus2=p1ulv4226.1.2 switch=n enabled=y phases=2 Linecode=1P_UG_AL_1/0_Brenau_2

New Line.l(r:p1udm1878-p1udm1885) Units=km Length=0.00979798 bus1=p1udm1885.1.2 bus2=p1udm1878.1.2 switch=n enabled=y phases=2 Linecode=1P_UG_AL_1/0_Brenau_2

New Line.l(r:p1udm1879-p1udm1885) Units=km Length=0.00979798 bus1=p1udm1879.1.2 bus2=p1udm1885.1.2 switch=n enabled=y phases=2 Linecode=1P_UG_AL_1/0_Brenau_2

New Line.l(r:p1udm1879-p1udt496lv) Units=km Length=0.00979527 bus1=p1udt496lv.1.2 bus2=p1udm1879.1.2 switch=n enabled=y phases=2 Linecode=1P_UG_AL_2/0_Converse_2

New Line.l(r:p1udm1882-p1ulv8655) Units=km Length=0.013648400000000002 bus1=p1udm1882.1.2 bus2=p1ulv8655.1.2 switch=n enabled=y phases=2 Linecode=1P_UG_AL_1/0_Brenau_2

New Line.l(r:p1udm1882-p1ulv8746) Units=km Length=0.0130715 bus1=p1udm1882.1.2 bus2=p1ulv8746.1.2 switch=n enabled=y phases=2 Linecode=1P_UG_AL_1/0_Brenau_2

New Line.l(r:p1udm1877-p1ulv2095) Units=km Length=0.0125838 bus1=p1udm1877.1.2 bus2=p1ulv2095.1.2 switch=n enabled=y phases=2 Linecode=1P_UG_AL_1/0_Brenau_2

New Line.l(r:p1udm1877-p1ulv4230) Units=km Length=0.0129975 bus1=p1udm1877.1.2 bus2=p1ulv4230.1.2 switch=n enabled=y phases=2 Linecode=1P_UG_AL_1/0_Brenau_2

New Line.l(r:p1udm1876-p1ulv2094) Units=km Length=0.012582300000000001 bus1=p1udm1876.1.2 bus2=p1ulv2094.1.2 switch=n enabled=y phases=2 Linecode=1P_UG_AL_1/0_Brenau_2

New Line.l(r:p1udm1876-p1ulv4232) Units=km Length=0.013103300000000002 bus1=p1udm1876.1.2 bus2=p1ulv4232.1.2 switch=n enabled=y phases=2 Linecode=1P_UG_AL_1/0_Brenau_2

New Line.l(r:p1udm1876-p1udm1877) Units=km Length=0.00979798 bus1=p1udm1877.1.2 bus2=p1udm1876.1.2 switch=n enabled=y phases=2 Linecode=1P_UG_AL_1/0_Brenau_2

New Line.l(r:p1udm1877-p1udm1882) Units=km Length=0.00979798 bus1=p1udm1882.1.2 bus2=p1udm1877.1.2 switch=n enabled=y phases=2 Linecode=1P_UG_AL_4/0_Sweetbriar_2

New Line.l(r:p1udm1882-p1udt496lv) Units=km Length=0.009807610000000001 bus1=p1udt496lv.1.2 bus2=p1udm1882.1.2 switch=n enabled=y phases=2 Linecode=1P_UG_AL_4/0_Sweetbriar_2

New Line.l(r:p1udt497lv-p1ulv2098) Units=km Length=0.0129587 bus1=p1udt497lv.1.2 bus2=p1ulv2098.1.2 switch=n enabled=y phases=2 Linecode=1P_UG_AL_1/0_Brenau_2

New Line.l(r:p1udt497lv-p1ulv8596) Units=km Length=0.0106092 bus1=p1udt497lv.1.2 bus2=p1ulv8596.1.2 switch=n enabled=y phases=2 Linecode=1P_UG_AL_1/0_Brenau_2

New Line.l(r:p1udm1892-p1ulv8590) Units=km Length=0.0124229 bus1=p1udm1892.1.2 bus2=p1ulv8590.1.2 switch=n enabled=y phases=2 Linecode=1P_UG_AL_1/0_Brenau_2

New Line.l(r:p1udm1892-p1ulv8593) Units=km Length=0.0110691 bus1=p1udm1892.1.2 bus2=p1ulv8593.1.2 switch=n enabled=y phases=2 Linecode=1P_UG_AL_1/0_Brenau_2

New Line.l(r:p1udm1893-p1ulv8591) Units=km Length=0.0112664 bus1=p1udm1893.1.2 bus2=p1ulv8591.1.2 switch=n enabled=y phases=2 Linecode=1P_UG_AL_1/0_Brenau_2

New Line.l(r:p1udm1888-p1ulv2097) Units=km Length=0.0128183 bus1=p1udm1888.1.2 bus2=p1ulv2097.1.2 switch=n enabled=y phases=2 Linecode=1P_UG_AL_1/0_Brenau_2

New Line.l(r:p1udm1888-p1ulv8587) Units=km Length=0.0107522 bus1=p1udm1888.1.2 bus2=p1ulv8587.1.2 switch=n enabled=y phases=2 Linecode=1P_UG_AL_1/0_Brenau_2

New Line.l(r:p1udm1888-p1udm1893) Units=km Length=0.0095095 bus1=p1udm1893.1.2 bus2=p1udm1888.1.2 switch=n enabled=y phases=2 Linecode=1P_UG_AL_1/0_Brenau_2

New Line.l(r:p1udm1892-p1udm1893) Units=km Length=0.00951912 bus1=p1udm1892.1.2 bus2=p1udm1893.1.2 switch=n enabled=y phases=2 Linecode=1P_UG_AL_1/0_Brenau_2

New Line.l(r:p1udm1892-p1udt497lv) Units=km Length=0.0095095 bus1=p1udt497lv.1.2 bus2=p1udm1892.1.2 switch=n enabled=y phases=2 Linecode=1P_UG_AL_2/0_Converse_2

New Line.l(r:p1udm1896-p1ulv8598) Units=km Length=0.0105944 bus1=p1udm1896.1.2 bus2=p1ulv8598.1.2 switch=n enabled=y phases=2 Linecode=1P_UG_AL_1/0_Brenau_2

New Line.l(r:p1udm1898-p1ulv8600) Units=km Length=0.012107800000000002 bus1=p1udm1898.1.2 bus2=p1ulv8600.1.2 switch=n enabled=y phases=2 Linecode=1P_OH_AL_2/0_Rucina_2

New Line.l(r:p1udm1897-p1ulv8599) Units=km Length=0.0101071 bus1=p1udm1897.1.2 bus2=p1ulv8599.1.2 switch=n enabled=y phases=2 Linecode=1P_OH_AL_2/0_Rucina_2

New Line.l(r:p1udm1897-p1ulv8605) Units=km Length=0.0120834 bus1=p1udm1897.1.2 bus2=p1ulv8605.1.2 switch=n enabled=y phases=2 Linecode=1P_OH_AL_2/0_Rucina_2

New Line.l(r:p1udm1890-p1ulv2100) Units=km Length=0.0112144 bus1=p1udm1890.1.2 bus2=p1ulv2100.1.2 switch=n enabled=y phases=2 Linecode=1P_OH_AL_2/0_Rucina_2

New Line.l(r:p1udm1890-p1ulv8606) Units=km Length=0.0114815 bus1=p1udm1890.1.2 bus2=p1ulv8606.1.2 switch=n enabled=y phases=2 Linecode=1P_OH_AL_2/0_Rucina_2

New Line.l(r:p1udm1890-p1udm1897) Units=km Length=0.01975 bus1=p1udm1897.1.2 bus2=p1udm1890.1.2 switch=n enabled=y phases=2 Linecode=1P_OH_AL_2/0_Rucina_2

New Line.l(r:p1udm1897-p1udm1898) Units=km Length=0.0197404 bus1=p1udm1898.1.2 bus2=p1udm1897.1.2 switch=n enabled=y phases=2 Linecode=1P_OH_AL_2/0_Rucina_2

New Line.l(r:p1udm1896-p1udm1898) Units=km Length=0.0387635 bus1=p1udm1896.1.2 bus2=p1udm1898.1.2 switch=n enabled=y phases=2 Linecode=1P_OH_AL_4/0_Zuzara_2

New Line.l(r:p1udm1896-p1udt497lv) Units=km Length=0.0095095 bus1=p1udt497lv.1.2 bus2=p1udm1896.1.2 switch=n enabled=y phases=2 Linecode=1P_UG_AL_4/0_Sweetbriar_2

New Line.l(r:p1udt498lv-p1ulv4227) Units=km Length=0.010698 bus1=p1udt498lv.1.2 bus2=p1ulv4227.1.2 switch=n enabled=y phases=2 Linecode=1P_OH_AL_2/0_Rucina_2
