New Load.load_p1ulv2029_1 conn=wye bus1=p1ulv2029.1 kV=0.12 Vminpu=0.8 Vmaxpu=1.2 model=1 kW=5.344689658272112 kvar=0.8155268521535948 Phases=1 !yearly=com_kw_31904_pu

New Load.load_p1ulv2029_2 conn=wye bus1=p1ulv2029.2 kV=0.12 Vminpu=0.8 Vmaxpu=1.2 model=1 kW=5.344689658272112 kvar=0.8155268521535948 Phases=1 !yearly=com_kw_31904_pu

New Load.load_p1ulv2030 conn=wye bus1=p1ulv2030.1.2.3 kV=0.48 Vminpu=0.8 Vmaxpu=1.2 model=1 kW=39.01807519900415 kvar=9.755179022474952 Phases=3 !yearly=res_kw_2990_pu

New Load.load_p1ulv2031_1 conn=wye bus1=p1ulv2031.1 kV=0.12 Vminpu=0.8 Vmaxpu=1.2 model=1 kW=7.714618443739876 kvar=0.3831254467062534 Phases=1 !yearly=res_kw_12609_pu

New Load.load_p1ulv2031_2 conn=wye bus1=p1ulv2031.2 kV=0.12 Vminpu=0.8 Vmaxpu=1.2 model=1 kW=7.714618443739876 kvar=0.3831254467062534 Phases=1 !yearly=res_kw_12609_pu

New Load.load_p1ulv2032_1 conn=wye bus1=p1ulv2032.1 kV=0.12 Vminpu=0.8 Vmaxpu=1.2 model=1 kW=4.967240885189281 kvar=2.7699788512330294 Phases=1 !yearly=res_kw_5388_pu

New Load.load_p1ulv2032_2 conn=wye bus1=p1ulv2032.2 kV=0.12 Vminpu=0.8 Vmaxpu=1.2 model=1 kW=4.967240885189281 kvar=2.7699788512330294 Phases=1 !yearly=res_kw_5388_pu

New Load.load_p1ulv2033_1 conn=wye bus1=p1ulv2033.1 kV=0.12 Vminpu=0.8 Vmaxpu=1.2 model=1 kW=2.5132968138853022 kvar=1.3311937902661788 Phases=1 !yearly=res_kw_7169_pu

New Load.load_p1ulv2033_2 conn=wye bus1=p1ulv2033.2 kV=0.12 Vminpu=0.8 Vmaxpu=1.2 model=1 kW=2.5132968138853022 kvar=1.3311937902661788 Phases=1 !yearly=res_kw_7169_pu

New Load.load_p1ulv2034_1 conn=wye bus1=p1ulv2034.1 kV=0.12 Vminpu=0.8 Vmaxpu=1.2 model=1 kW=8.597743439692849 kvar=1.3389373833132456 Phases=1 !yearly=res_kw_8045_pu

New Load.load_p1ulv2034_2 conn=wye bus1=p1ulv2034.2 kV=0.12 Vminpu=0.8 Vmaxpu=1.2 model=1 kW=8.597743439692849 kvar=1.3389373833132456 Phases=1 !yearly=res_kw_8045_pu

New Load.load_p1ulv2035_1 conn=wye bus1=p1ulv2035.1 kV=0.12 Vminpu=0.8 Vmaxpu=1.2 model=1 kW=2.931347600748843 kvar=0.97768534997531 Phases=1 !yearly=res_kw_212_pu

New Load.load_p1ulv2035_2 conn=wye bus1=p1ulv2035.2 kV=0.12 Vminpu=0.8 Vmaxpu=1.2 model=1 kW=2.931347600748843 kvar=0.97768534997531 Phases=1 !yearly=res_kw_212_pu

New Load.load_p1ulv2036_1 conn=wye bus1=p1ulv2036.1 kV=0.12 Vminpu=0.8 Vmaxpu=1.2 model=1 kW=2.931347600748843 kvar=0.97768534997531 Phases=1 !yearly=res_kw_212_pu

New Load.load_p1ulv2036_2 conn=wye bus1=p1ulv2036.2 kV=0.12 Vminpu=0.8 Vmaxpu=1.2 model=1 kW=2.931347600748843 kvar=0.97768534997531 Phases=1 !yearly=res_kw_212_pu

New Load.load_p1ulv2037_1 conn=wye bus1=p1ulv2037.1 kV=0.12 Vminpu=0.8 Vmaxpu=1.2 model=1 kW=9.226945815561063 kvar=2.9712485614925592 Phases=1 !yearly=res_kw_933_pu

New Load.load_p1ulv2037_2 conn=wye bus1=p1ulv2037.2 kV=0.12 Vminpu=0.8 Vmaxpu=1.2 model=1 kW=9.226945815561063 kvar=2.9712485614925592 Phases=1 !yearly=res_kw_933_pu

New Load.load_p1ulv2038_1 conn=wye bus1=p1ulv2038.1 kV=0.12 Vminpu=0.8 Vmaxpu=1.2 model=1 kW=7.060447659233421 kvar=1.0730661504789492 Phases=1 !yearly=res_kw_516_pu

New Load.load_p1ulv2038_2 conn=wye bus1=p1ulv2038.2 kV=0.12 Vminpu=0.8 Vmaxpu=1.2 model=1 kW=7.060447659233421 kvar=1.0730661504789492 Phases=1 !yearly=res_kw_516_pu

New Load.load_p1ulv2039_1 conn=wye bus1=p1ulv2038.1 kV=0.12 Vminpu=0.8 Vmaxpu=1.2 model=1 kW=2.9986395203885086 kvar=0.98736986115534 Phases=1 !yearly=res_kw_14639_pu

New Load.load_p1ulv2039_2 conn=wye bus1=p1ulv2038.2 kV=0.12 Vminpu=0.8 Vmaxpu=1.2 model=1 kW=2.9986395203885086 kvar=0.98736986115534 Phases=1 !yearly=res_kw_14639_pu

New Load.load_p1ulv2040_1 conn=wye bus1=p1ulv2040.1 kV=0.12 Vminpu=0.8 Vmaxpu=1.2 model=1 kW=10.365085146994144 kvar=2.3584667885946176 Phases=1 !yearly=res_kw_4592_pu

New Load.load_p1ulv2040_2 conn=wye bus1=p1ulv2040.2 kV=0.12 Vminpu=0.8 Vmaxpu=1.2 model=1 kW=10.365085146994144 kvar=2.3584667885946176 Phases=1 !yearly=res_kw_4592_pu

New Load.load_p1ulv2041_1 conn=wye bus1=p1ulv2041.1 kV=0.12 Vminpu=0.8 Vmaxpu=1.2 model=1 kW=3.3679504550627355 kvar=1.8883614301826692 Phases=1 !yearly=res_kw_14062_pu

New Load.load_p1ulv2041_2 conn=wye bus1=p1ulv2041.2 kV=0.12 Vminpu=0.8 Vmaxpu=1.2 model=1 kW=3.3679504550627355 kvar=1.8883614301826692 Phases=1 !yearly=res_kw_14062_pu

New Load.load_p1ulv2042_1 conn=wye bus1=p1ulv2042.1 kV=0.12 Vminpu=0.8 Vmaxpu=1.2 model=1 kW=6.637432113208701 kvar=2.0862732566307933 Phases=1 !yearly=res_kw_11269_pu

New Load.load_p1ulv2042_2 conn=wye bus1=p1ulv2042.2 kV=0.12 Vminpu=0.8 Vmaxpu=1.2 model=1 kW=6.637432113208701 kvar=2.0862732566307933 Phases=1 !yearly=res_kw_11269_pu

New Load.load_p1ulv2043_1 conn=wye bus1=p1ulv2043.1 kV=0.12 Vminpu=0.8 Vmaxpu=1.2 model=1 kW=3.875608242018149 kvar=1.1961787734858456 Phases=1 !yearly=res_kw_10857_pu

New Load.load_p1ulv2043_2 conn=wye bus1=p1ulv2043.2 kV=0.12 Vminpu=0.8 Vmaxpu=1.2 model=1 kW=3.875608242018149 kvar=1.1961787734858456 Phases=1 !yearly=res_kw_10857_pu

New Load.load_p1ulv2044_1 conn=wye bus1=p1ulv2044.1 kV=0.12 Vminpu=0.8 Vmaxpu=1.2 model=1 kW=5.21268306202818 kvar=1.707854505481233 Phases=1 !yearly=res_kw_13981_pu

New Load.load_p1ulv2044_2 conn=wye bus1=p1ulv2044.2 kV=0.12 Vminpu=0.8 Vmaxpu=1.2 model=1 kW=5.21268306202818 kvar=1.707854505481233 Phases=1 !yearly=res_kw_13981_pu

New Load.load_p1ulv2045_1 conn=wye bus1=p1ulv2045.1 kV=0.12 Vminpu=0.8 Vmaxpu=1.2 model=1 kW=4.24642551307671 kvar=1.7870686759515635 Phases=1 !yearly=res_kw_3146_pu

New Load.load_p1ulv2045_2 conn=wye bus1=p1ulv2045.2 kV=0.12 Vminpu=0.8 Vmaxpu=1.2 model=1 kW=4.24642551307671 kvar=1.7870686759515635 Phases=1 !yearly=res_kw_3146_pu

New Load.load_p1ulv2046_1 conn=wye bus1=p1ulv2046.1 kV=0.12 Vminpu=0.8 Vmaxpu=1.2 model=1 kW=14.689182954930073 kvar=2.6535691265958388 Phases=1 !yearly=res_kw_12418_pu

New Load.load_p1ulv2046_2 conn=wye bus1=p1ulv2046.2 kV=0.12 Vminpu=0.8 Vmaxpu=1.2 model=1 kW=14.689182954930073 kvar=2.6535691265958388 Phases=1 !yearly=res_kw_12418_pu

New Load.load_p1ulv2047_1 conn=wye bus1=p1ulv2047.1 kV=0.12 Vminpu=0.8 Vmaxpu=1.2 model=1 kW=3.767957291836072 kvar=1.1992245814154692 Phases=1 !yearly=res_kw_11858_pu

New Load.load_p1ulv2047_2 conn=wye bus1=p1ulv2047.2 kV=0.12 Vminpu=0.8 Vmaxpu=1.2 model=1 kW=3.767957291836072 kvar=1.1992245814154692 Phases=1 !yearly=res_kw_11858_pu

New Load.load_p1ulv2048_1 conn=wye bus1=p1ulv2048.1 kV=0.12 Vminpu=0.8 Vmaxpu=1.2 model=1 kW=2.679689620441751 kvar=0.9077324041357607 Phases=1 !yearly=res_kw_6317_pu

New Load.load_p1ulv2048_2 conn=wye bus1=p1ulv2048.2 kV=0.12 Vminpu=0.8 Vmaxpu=1.2 model=1 kW=2.679689620441751 kvar=0.9077324041357607 Phases=1 !yearly=res_kw_6317_pu

New Load.load_p1ulv2049_1 conn=wye bus1=p1ulv2049.1 kV=0.12 Vminpu=0.8 Vmaxpu=1.2 model=1 kW=4.025235929487997 kvar=1.9672019739719726 Phases=1 !yearly=res_kw_7172_pu

New Load.load_p1ulv2049_2 conn=wye bus1=p1ulv2049.2 kV=0.12 Vminpu=0.8 Vmaxpu=1.2 model=1 kW=4.025235929487997 kvar=1.9672019739719726 Phases=1 !yearly=res_kw_7172_pu

New Load.load_p1ulv2050_1 conn=wye bus1=p1ulv2050.1 kV=0.12 Vminpu=0.8 Vmaxpu=1.2 model=1 kW=6.057087739211849 kvar=2.7352457219388664 Phases=1 !yearly=res_kw_641_pu

New Load.load_p1ulv2050_2 conn=wye bus1=p1ulv2050.2 kV=0.12 Vminpu=0.8 Vmaxpu=1.2 model=1 kW=6.057087739211849 kvar=2.7352457219388664 Phases=1 !yearly=res_kw_641_pu

New Load.load_p1ulv2051_1 conn=wye bus1=p1ulv2051.1 kV=0.12 Vminpu=0.8 Vmaxpu=1.2 model=1 kW=3.3679504550627355 kvar=1.8883614301826692 Phases=1 !yearly=res_kw_14062_pu

New Load.load_p1ulv2051_2 conn=wye bus1=p1ulv2051.2 kV=0.12 Vminpu=0.8 Vmaxpu=1.2 model=1 kW=3.3679504550627355 kvar=1.8883614301826692 Phases=1 !yearly=res_kw_14062_pu

New Load.load_p1ulv2052_1 conn=wye bus1=p1ulv2052.1 kV=0.12 Vminpu=0.8 Vmaxpu=1.2 model=1 kW=7.354599726773856 kvar=1.636709731909327 Phases=1 !yearly=res_kw_15206_pu

New Load.load_p1ulv2052_2 conn=wye bus1=p1ulv2052.2 kV=0.12 Vminpu=0.8 Vmaxpu=1.2 model=1 kW=7.354599726773856 kvar=1.636709731909327 Phases=1 !yearly=res_kw_15206_pu

New Load.load_p1ulv2053_1 conn=wye bus1=p1ulv2052.1 kV=0.12 Vminpu=0.8 Vmaxpu=1.2 model=1 kW=2.6336247552290706 kvar=0.8034540577596695 Phases=1 !yearly=res_kw_6751_pu

New Load.load_p1ulv2053_2 conn=wye bus1=p1ulv2052.2 kV=0.12 Vminpu=0.8 Vmaxpu=1.2 model=1 kW=2.6336247552290706 kvar=0.8034540577596695 Phases=1 !yearly=res_kw_6751_pu

New Load.load_p1ulv2054_1 conn=wye bus1=p1ulv2054.1 kV=0.12 Vminpu=0.8 Vmaxpu=1.2 model=1 kW=4.831645701853254 kvar=0.5681008641678887 Phases=1 !yearly=res_kw_2986_pu

New Load.load_p1ulv2054_2 conn=wye bus1=p1ulv2054.2 kV=0.12 Vminpu=0.8 Vmaxpu=1.2 model=1 kW=4.831645701853254 kvar=0.5681008641678887 Phases=1 !yearly=res_kw_2986_pu

New Load.load_p1ulv2055_1 conn=wye bus1=p1ulv2055.1 kV=0.12 Vminpu=0.8 Vmaxpu=1.2 model=1 kW=4.834536559876949 kvar=2.1490313899468845 Phases=1 !yearly=res_kw_8612_pu

New Load.load_p1ulv2055_2 conn=wye bus1=p1ulv2055.2 kV=0.12 Vminpu=0.8 Vmaxpu=1.2 model=1 kW=4.834536559876949 kvar=2.1490313899468845 Phases=1 !yearly=res_kw_8612_pu

New Load.load_p1ulv2056_1 conn=wye bus1=p1ulv2056.1 kV=0.12 Vminpu=0.8 Vmaxpu=1.2 model=1 kW=2.6336247552290706 kvar=0.8034540577596695 Phases=1 !yearly=res_kw_6751_pu

New Load.load_p1ulv2056_2 conn=wye bus1=p1ulv2056.2 kV=0.12 Vminpu=0.8 Vmaxpu=1.2 model=1 kW=2.6336247552290706 kvar=0.8034540577596695 Phases=1 !yearly=res_kw_6751_pu

New Load.load_p1ulv2057_1 conn=wye bus1=p1ulv2057.1 kV=0.12 Vminpu=0.8 Vmaxpu=1.2 model=1 kW=7.052819039029729 kvar=0.6406126314043256 Phases=1 !yearly=res_kw_6653_pu

New Load.load_p1ulv2057_2 conn=wye bus1=p1ulv2057.2 kV=0.12 Vminpu=0.8 Vmaxpu=1.2 model=1 kW=7.052819039029729 kvar=0.6406126314043256 Phases=1 !yearly=res_kw_6653_pu

New Load.load_p1ulv2058_1 conn=wye bus1=p1ulv2058.1 kV=0.12 Vminpu=0.8 Vmaxpu=1.2 model=1 kW=4.174434191547281 kvar=0.8828950767431165 Phases=1 !yearly=res_kw_10971_pu

New Load.load_p1ulv2058_2 conn=wye bus1=p1ulv2058.2 kV=0.12 Vminpu=0.8 Vmaxpu=1.2 model=1 kW=4.174434191547281 kvar=0.8828950767431165 Phases=1 !yearly=res_kw_10971_pu

New Load.load_p1ulv2059_1 conn=wye bus1=p1ulv2059.1 kV=0.12 Vminpu=0.8 Vmaxpu=1.2 model=1 kW=5.969897234136785 kvar=1.5243539115524138 Phases=1 !yearly=res_kw_3250_pu

New Load.load_p1ulv2059_2 conn=wye bus1=p1ulv2059.2 kV=0.12 Vminpu=0.8 Vmaxpu=1.2 model=1 kW=5.969897234136785 kvar=1.5243539115524138 Phases=1 !yearly=res_kw_3250_pu

New Load.load_p1ulv2060_1 conn=wye bus1=p1ulv2060.1 kV=0.12 Vminpu=0.8 Vmaxpu=1.2 model=1 kW=1.5315004956850187 kvar=0.5451120192288488 Phases=1 !yearly=res_kw_11790_pu

New Load.load_p1ulv2060_2 conn=wye bus1=p1ulv2060.2 kV=0.12 Vminpu=0.8 Vmaxpu=1.2 model=1 kW=1.5315004956850187 kvar=0.5451120192288488 Phases=1 !yearly=res_kw_11790_pu

New Load.load_p1ulv2061_1 conn=wye bus1=p1ulv2061.1 kV=0.12 Vminpu=0.8 Vmaxpu=1.2 model=1 kW=1.9029063430901945 kvar=0.888181875092591 Phases=1 !yearly=res_kw_982_pu

New Load.load_p1ulv2061_2 conn=wye bus1=p1ulv2061.2 kV=0.12 Vminpu=0.8 Vmaxpu=1.2 model=1 kW=1.9029063430901945 kvar=0.888181875092591 Phases=1 !yearly=res_kw_982_pu

New Load.load_p1ulv2062_1 conn=wye bus1=p1ulv2061.1 kV=0.12 Vminpu=0.8 Vmaxpu=1.2 model=1 kW=2.1698158732703443 kvar=0.8490689598373361 Phases=1 !yearly=res_kw_8743_pu

New Load.load_p1ulv2062_2 conn=wye bus1=p1ulv2061.2 kV=0.12 Vminpu=0.8 Vmaxpu=1.2 model=1 kW=2.1698158732703443 kvar=0.8490689598373361 Phases=1 !yearly=res_kw_8743_pu

New Load.load_p1ulv2063_1 conn=wye bus1=p1ulv2063.1 kV=0.12 Vminpu=0.8 Vmaxpu=1.2 model=1 kW=1.0424068784344542 kvar=0.5557060719923596 Phases=1 !yearly=res_kw_1960_pu

New Load.load_p1ulv2063_2 conn=wye bus1=p1ulv2063.2 kV=0.12 Vminpu=0.8 Vmaxpu=1.2 model=1 kW=1.0424068784344542 kvar=0.5557060719923596 Phases=1 !yearly=res_kw_1960_pu

New Load.load_p1ulv2064_1 conn=wye bus1=p1ulv2064.1 kV=0.12 Vminpu=0.8 Vmaxpu=1.2 model=1 kW=0.7150544099742788 kvar=0.32563033080643944 Phases=1 !yearly=res_kw_1753_pu

New Load.load_p1ulv2064_2 conn=wye bus1=p1ulv2064.2 kV=0.12 Vminpu=0.8 Vmaxpu=1.2 model=1 kW=0.7150544099742788 kvar=0.32563033080643944 Phases=1 !yearly=res_kw_1753_pu

New Load.load_p1ulv2065_1 conn=wye bus1=p1ulv2065.1 kV=0.12 Vminpu=0.8 Vmaxpu=1.2 model=1 kW=3.163783450414519 kvar=0.9341498819217712 Phases=1 !yearly=res_kw_7129_pu

New Load.load_p1ulv2065_2 conn=wye bus1=p1ulv2065.2 kV=0.12 Vminpu=0.8 Vmaxpu=1.2 model=1 kW=3.163783450414519 kvar=0.9341498819217712 Phases=1 !yearly=res_kw_7129_pu

New Load.load_p1ulv2066_1 conn=wye bus1=p1ulv2065.1 kV=0.12 Vminpu=0.8 Vmaxpu=1.2 model=1 kW=4.060834559711965 kvar=0.4528637167980347 Phases=1 !yearly=res_kw_2131_pu

New Load.load_p1ulv2066_2 conn=wye bus1=p1ulv2065.2 kV=0.12 Vminpu=0.8 Vmaxpu=1.2 model=1 kW=4.060834559711965 kvar=0.4528637167980347 Phases=1 !yearly=res_kw_2131_pu

New Load.load_p1ulv2067_1 conn=wye bus1=p1ulv2067.1 kV=0.12 Vminpu=0.8 Vmaxpu=1.2 model=1 kW=3.4460841500077097 kvar=0.15562665537022718 Phases=1 !yearly=res_kw_8127_pu

New Load.load_p1ulv2067_2 conn=wye bus1=p1ulv2067.2 kV=0.12 Vminpu=0.8 Vmaxpu=1.2 model=1 kW=3.4460841500077097 kvar=0.15562665537022718 Phases=1 !yearly=res_kw_8127_pu

New Load.load_p1ulv2068_1 conn=wye bus1=p1ulv2068.1 kV=0.12 Vminpu=0.8 Vmaxpu=1.2 model=1 kW=1.0527025662462328 kvar=0.37071631486053974 Phases=1 !yearly=res_kw_15158_pu

New Load.load_p1ulv2068_2 conn=wye bus1=p1ulv2068.2 kV=0.12 Vminpu=0.8 Vmaxpu=1.2 model=1 kW=1.0527025662462328 kvar=0.37071631486053974 Phases=1 !yearly=res_kw_15158_pu

New Load.load_p1ulv2069_1 conn=wye bus1=p1ulv2068.1 kV=0.12 Vminpu=0.8 Vmaxpu=1.2 model=1 kW=1.7772343659192216 kvar=0.5892626614885013 Phases=1 !yearly=res_kw_9512_pu

New Load.load_p1ulv2069_2 conn=wye bus1=p1ulv2068.2 kV=0.12 Vminpu=0.8 Vmaxpu=1.2 model=1 kW=1.7772343659192216 kvar=0.5892626614885013 Phases=1 !yearly=res_kw_9512_pu

New Load.load_p1ulv2070_1 conn=wye bus1=p1ulv2070.1 kV=0.12 Vminpu=0.8 Vmaxpu=1.2 model=1 kW=3.9024769844937937 kvar=1.4778358547008617 Phases=1 !yearly=res_kw_4343_pu

New Load.load_p1ulv2070_2 conn=wye bus1=p1ulv2070.2 kV=0.12 Vminpu=0.8 Vmaxpu=1.2 model=1 kW=3.9024769844937937 kvar=1.4778358547008617 Phases=1 !yearly=res_kw_4343_pu

New Load.load_p1ulv2071_1 conn=wye bus1=p1ulv2071.1 kV=0.12 Vminpu=0.8 Vmaxpu=1.2 model=1 kW=1.7579348494361045 kvar=0.7852381030918401 Phases=1 !yearly=res_kw_13165_pu

New Load.load_p1ulv2071_2 conn=wye bus1=p1ulv2071.2 kV=0.12 Vminpu=0.8 Vmaxpu=1.2 model=1 kW=1.7579348494361045 kvar=0.7852381030918401 Phases=1 !yearly=res_kw_13165_pu

New Load.load_p1ulv2072_1 conn=wye bus1=p1ulv2072.1 kV=0.12 Vminpu=0.8 Vmaxpu=1.2 model=1 kW=5.127438645009231 kvar=0.8176304041402817 Phases=1 !yearly=res_kw_13707_pu

New Load.load_p1ulv2072_2 conn=wye bus1=p1ulv2072.2 kV=0.12 Vminpu=0.8 Vmaxpu=1.2 model=1 kW=5.127438645009231 kvar=0.8176304041402817 Phases=1 !yearly=res_kw_13707_pu

New Load.load_p1ulv2073_1 conn=wye bus1=p1ulv2073.1 kV=0.12 Vminpu=0.8 Vmaxpu=1.2 model=1 kW=1.6235247805381197 kvar=0.5206515777483778 Phases=1 !yearly=res_kw_3440_pu

New Load.load_p1ulv2073_2 conn=wye bus1=p1ulv2073.2 kV=0.12 Vminpu=0.8 Vmaxpu=1.2 model=1 kW=1.6235247805381197 kvar=0.5206515777483778 Phases=1 !yearly=res_kw_3440_pu

New Load.load_p1ulv2074_1 conn=wye bus1=p1ulv2074.1 kV=0.12 Vminpu=0.8 Vmaxpu=1.2 model=1 kW=4.096881510960829 kvar=0.27065521982295004 Phases=1 !yearly=res_kw_4450_pu

New Load.load_p1ulv2074_2 conn=wye bus1=p1ulv2074.2 kV=0.12 Vminpu=0.8 Vmaxpu=1.2 model=1 kW=4.096881510960829 kvar=0.27065521982295004 Phases=1 !yearly=res_kw_4450_pu

New Load.load_p1ulv2075_1 conn=wye bus1=p1ulv2074.1 kV=0.12 Vminpu=0.8 Vmaxpu=1.2 model=1 kW=2.3431197966333905 kvar=0.9064058467629378 Phases=1 !yearly=res_kw_1173_pu

New Load.load_p1ulv2075_2 conn=wye bus1=p1ulv2074.2 kV=0.12 Vminpu=0.8 Vmaxpu=1.2 model=1 kW=2.3431197966333905 kvar=0.9064058467629378 Phases=1 !yearly=res_kw_1173_pu

New Load.load_p1ulv2076_1 conn=wye bus1=p1ulv2076.1 kV=0.12 Vminpu=0.8 Vmaxpu=1.2 model=1 kW=1.634655362134857 kvar=0.5597948152611254 Phases=1 !yearly=res_kw_2556_pu

New Load.load_p1ulv2076_2 conn=wye bus1=p1ulv2076.2 kV=0.12 Vminpu=0.8 Vmaxpu=1.2 model=1 kW=1.634655362134857 kvar=0.5597948152611254 Phases=1 !yearly=res_kw_2556_pu

New Load.load_p1ulv2077_1 conn=wye bus1=p1ulv2077.1 kV=0.12 Vminpu=0.8 Vmaxpu=1.2 model=1 kW=1.8559302606700807 kvar=0.7886432487270137 Phases=1 !yearly=res_kw_1166_pu

New Load.load_p1ulv2077_2 conn=wye bus1=p1ulv2077.2 kV=0.12 Vminpu=0.8 Vmaxpu=1.2 model=1 kW=1.8559302606700807 kvar=0.7886432487270137 Phases=1 !yearly=res_kw_1166_pu

New Load.load_p1ulv2078_1 conn=wye bus1=p1ulv2078.1 kV=0.12 Vminpu=0.8 Vmaxpu=1.2 model=1 kW=1.919115741074501 kvar=0.2850908988242494 Phases=1 !yearly=res_kw_10222_pu

New Load.load_p1ulv2078_2 conn=wye bus1=p1ulv2078.2 kV=0.12 Vminpu=0.8 Vmaxpu=1.2 model=1 kW=1.919115741074501 kvar=0.2850908988242494 Phases=1 !yearly=res_kw_10222_pu

New Load.load_p1ulv2079_1 conn=wye bus1=p1ulv2079.1 kV=0.12 Vminpu=0.8 Vmaxpu=1.2 model=1 kW=2.1603354468169496 kvar=0.7593773040340845 Phases=1 !yearly=res_kw_14158_pu

New Load.load_p1ulv2079_2 conn=wye bus1=p1ulv2079.2 kV=0.12 Vminpu=0.8 Vmaxpu=1.2 model=1 kW=2.1603354468169496 kvar=0.7593773040340845 Phases=1 !yearly=res_kw_14158_pu

New Load.load_p1ulv2080_1 conn=wye bus1=p1ulv2079.1 kV=0.12 Vminpu=0.8 Vmaxpu=1.2 model=1 kW=1.3903606764448309 kvar=0.35989325704970737 Phases=1 !yearly=res_kw_5110_pu

New Load.load_p1ulv2080_2 conn=wye bus1=p1ulv2079.2 kV=0.12 Vminpu=0.8 Vmaxpu=1.2 model=1 kW=1.3903606764448309 kvar=0.35989325704970737 Phases=1 !yearly=res_kw_5110_pu

New Load.load_p1ulv2081_1 conn=wye bus1=p1ulv2081.1 kV=0.12 Vminpu=0.8 Vmaxpu=1.2 model=1 kW=3.310883147723035 kvar=0.9727032481868609 Phases=1 !yearly=res_kw_5723_pu

New Load.load_p1ulv2081_2 conn=wye bus1=p1ulv2081.2 kV=0.12 Vminpu=0.8 Vmaxpu=1.2 model=1 kW=3.310883147723035 kvar=0.9727032481868609 Phases=1 !yearly=res_kw_5723_pu

New Load.load_p1ulv2082_1 conn=wye bus1=p1ulv2082.1 kV=0.12 Vminpu=0.8 Vmaxpu=1.2 model=1 kW=2.6976007564693765 kvar=1.0012223642000246 Phases=1 !yearly=res_kw_7043_pu

New Load.load_p1ulv2082_2 conn=wye bus1=p1ulv2082.2 kV=0.12 Vminpu=0.8 Vmaxpu=1.2 model=1 kW=2.6976007564693765 kvar=1.0012223642000246 Phases=1 !yearly=res_kw_7043_pu

New Load.load_p1ulv2083_1 conn=wye bus1=p1ulv2083.1 kV=0.12 Vminpu=0.8 Vmaxpu=1.2 model=1 kW=2.661093206685493 kvar=0.9884186563142763 Phases=1 !yearly=res_kw_5685_pu

New Load.load_p1ulv2083_2 conn=wye bus1=p1ulv2083.2 kV=0.12 Vminpu=0.8 Vmaxpu=1.2 model=1 kW=2.661093206685493 kvar=0.9884186563142763 Phases=1 !yearly=res_kw_5685_pu

New Load.load_p1ulv2084_1 conn=wye bus1=p1ulv2084.1 kV=0.12 Vminpu=0.8 Vmaxpu=1.2 model=1 kW=7.354599726773856 kvar=1.636709731909327 Phases=1 !yearly=res_kw_15206_pu

New Load.load_p1ulv2084_2 conn=wye bus1=p1ulv2084.2 kV=0.12 Vminpu=0.8 Vmaxpu=1.2 model=1 kW=7.354599726773856 kvar=1.636709731909327 Phases=1 !yearly=res_kw_15206_pu

New Load.load_p1ulv2085_1 conn=wye bus1=p1ulv2085.1 kV=0.12 Vminpu=0.8 Vmaxpu=1.2 model=1 kW=2.689923986562926 kvar=1.0138099289188034 Phases=1 !yearly=res_kw_6930_pu

New Load.load_p1ulv2085_2 conn=wye bus1=p1ulv2085.2 kV=0.12 Vminpu=0.8 Vmaxpu=1.2 model=1 kW=2.689923986562926 kvar=1.0138099289188034 Phases=1 !yearly=res_kw_6930_pu

New Load.load_p1ulv2086_1 conn=wye bus1=p1ulv2086.1 kV=0.12 Vminpu=0.8 Vmaxpu=1.2 model=1 kW=1.101351979265181 kvar=0.351458103940822 Phases=1 !yearly=res_kw_11315_pu

New Load.load_p1ulv2086_2 conn=wye bus1=p1ulv2086.2 kV=0.12 Vminpu=0.8 Vmaxpu=1.2 model=1 kW=1.101351979265181 kvar=0.351458103940822 Phases=1 !yearly=res_kw_11315_pu

New Load.load_p1ulv2087_1 conn=wye bus1=p1ulv2087.1 kV=0.12 Vminpu=0.8 Vmaxpu=1.2 model=1 kW=2.461258219885108 kvar=0.2667854946617303 Phases=1 !yearly=res_kw_1089_pu

New Load.load_p1ulv2087_2 conn=wye bus1=p1ulv2087.2 kV=0.12 Vminpu=0.8 Vmaxpu=1.2 model=1 kW=2.461258219885108 kvar=0.2667854946617303 Phases=1 !yearly=res_kw_1089_pu

New Load.load_p1ulv2088_1 conn=wye bus1=p1ulv2088.1 kV=0.12 Vminpu=0.8 Vmaxpu=1.2 model=1 kW=2.8022605545790342 kvar=1.2205937027632787 Phases=1 !yearly=res_kw_174_pu

New Load.load_p1ulv2088_2 conn=wye bus1=p1ulv2088.2 kV=0.12 Vminpu=0.8 Vmaxpu=1.2 model=1 kW=2.8022605545790342 kvar=1.2205937027632787 Phases=1 !yearly=res_kw_174_pu

New Load.load_p1ulv2089_1 conn=wye bus1=p1ulv2089.1 kV=0.12 Vminpu=0.8 Vmaxpu=1.2 model=1 kW=3.9024769844937937 kvar=1.4778358547008617 Phases=1 !yearly=res_kw_4343_pu

New Load.load_p1ulv2089_2 conn=wye bus1=p1ulv2089.2 kV=0.12 Vminpu=0.8 Vmaxpu=1.2 model=1 kW=3.9024769844937937 kvar=1.4778358547008617 Phases=1 !yearly=res_kw_4343_pu

New Load.load_p1ulv2090_1 conn=wye bus1=p1ulv2089.1 kV=0.12 Vminpu=0.8 Vmaxpu=1.2 model=1 kW=1.8322096344455547 kvar=0.7991596594888891 Phases=1 !yearly=res_kw_588_pu

New Load.load_p1ulv2090_2 conn=wye bus1=p1ulv2089.2 kV=0.12 Vminpu=0.8 Vmaxpu=1.2 model=1 kW=1.8322096344455547 kvar=0.7991596594888891 Phases=1 !yearly=res_kw_588_pu

New Load.load_p1ulv2091_1 conn=wye bus1=p1ulv2091.1 kV=0.12 Vminpu=0.8 Vmaxpu=1.2 model=1 kW=2.1698158732703443 kvar=0.8490689598373361 Phases=1 !yearly=res_kw_8743_pu

New Load.load_p1ulv2091_2 conn=wye bus1=p1ulv2091.2 kV=0.12 Vminpu=0.8 Vmaxpu=1.2 model=1 kW=2.1698158732703443 kvar=0.8490689598373361 Phases=1 !yearly=res_kw_8743_pu

New Load.load_p1ulv2092_1 conn=wye bus1=p1ulv2092.1 kV=0.12 Vminpu=0.8 Vmaxpu=1.2 model=1 kW=1.8033099995778592 kvar=0.5916030112244985 Phases=1 !yearly=res_kw_7033_pu

New Load.load_p1ulv2092_2 conn=wye bus1=p1ulv2092.2 kV=0.12 Vminpu=0.8 Vmaxpu=1.2 model=1 kW=1.8033099995778592 kvar=0.5916030112244985 Phases=1 !yearly=res_kw_7033_pu

New Load.load_p1ulv2093_1 conn=wye bus1=p1ulv2093.1 kV=0.12 Vminpu=0.8 Vmaxpu=1.2 model=1 kW=2.661093206685493 kvar=0.9884186563142763 Phases=1 !yearly=res_kw_5685_pu

New Load.load_p1ulv2093_2 conn=wye bus1=p1ulv2093.2 kV=0.12 Vminpu=0.8 Vmaxpu=1.2 model=1 kW=2.661093206685493 kvar=0.9884186563142763 Phases=1 !yearly=res_kw_5685_pu

New Load.load_p1ulv2094_1 conn=wye bus1=p1ulv2094.1 kV=0.12 Vminpu=0.8 Vmaxpu=1.2 model=1 kW=2.3225810719994042 kvar=0.7007930471414398 Phases=1 !yearly=res_kw_4727_pu

New Load.load_p1ulv2094_2 conn=wye bus1=p1ulv2094.2 kV=0.12 Vminpu=0.8 Vmaxpu=1.2 model=1 kW=2.3225810719994042 kvar=0.7007930471414398 Phases=1 !yearly=res_kw_4727_pu

New Load.load_p1ulv2095_1 conn=wye bus1=p1ulv2095.1 kV=0.12 Vminpu=0.8 Vmaxpu=1.2 model=1 kW=4.69722938823788 kvar=0.6546008506549251 Phases=1 !yearly=res_kw_12125_pu

New Load.load_p1ulv2095_2 conn=wye bus1=p1ulv2095.2 kV=0.12 Vminpu=0.8 Vmaxpu=1.2 model=1 kW=4.69722938823788 kvar=0.6546008506549251 Phases=1 !yearly=res_kw_12125_pu

New Load.load_p1ulv2096_1 conn=wye bus1=p1ulv2096.1 kV=0.12 Vminpu=0.8 Vmaxpu=1.2 model=1 kW=1.4663769608466568 kvar=0.5502546109327153 Phases=1 !yearly=res_kw_678_pu

New Load.load_p1ulv2096_2 conn=wye bus1=p1ulv2096.2 kV=0.12 Vminpu=0.8 Vmaxpu=1.2 model=1 kW=1.4663769608466568 kvar=0.5502546109327153 Phases=1 !yearly=res_kw_678_pu

New Load.load_p1ulv2097_1 conn=wye bus1=p1ulv2097.1 kV=0.12 Vminpu=0.8 Vmaxpu=1.2 model=1 kW=4.236871121481537 kvar=0.9333753520283586 Phases=1 !yearly=res_kw_8704_pu

New Load.load_p1ulv2097_2 conn=wye bus1=p1ulv2097.2 kV=0.12 Vminpu=0.8 Vmaxpu=1.2 model=1 kW=4.236871121481537 kvar=0.9333753520283586 Phases=1 !yearly=res_kw_8704_pu

New Load.load_p1ulv2098_1 conn=wye bus1=p1ulv2098.1 kV=0.12 Vminpu=0.8 Vmaxpu=1.2 model=1 kW=1.5322190914905935 kvar=0.6517300297340308 Phases=1 !yearly=res_kw_11915_pu

New Load.load_p1ulv2098_2 conn=wye bus1=p1ulv2098.2 kV=0.12 Vminpu=0.8 Vmaxpu=1.2 model=1 kW=1.5322190914905935 kvar=0.6517300297340308 Phases=1 !yearly=res_kw_11915_pu

New Load.load_p1ulv2099_1 conn=wye bus1=p1ulv2099.1 kV=0.12 Vminpu=0.8 Vmaxpu=1.2 model=1 kW=3.398192997176751 kvar=0.7349988863994146 Phases=1 !yearly=res_kw_1475_pu

New Load.load_p1ulv2099_2 conn=wye bus1=p1ulv2099.2 kV=0.12 Vminpu=0.8 Vmaxpu=1.2 model=1 kW=3.398192997176751 kvar=0.7349988863994146 Phases=1 !yearly=res_kw_1475_pu

New Load.load_p1ulv2100_1 conn=wye bus1=p1ulv2100.1 kV=0.12 Vminpu=0.8 Vmaxpu=1.2 model=1 kW=1.0527025662462328 kvar=0.37071631486053974 Phases=1 !yearly=res_kw_15158_pu

New Load.load_p1ulv2100_2 conn=wye bus1=p1ulv2100.2 kV=0.12 Vminpu=0.8 Vmaxpu=1.2 model=1 kW=1.0527025662462328 kvar=0.37071631486053974 Phases=1 !yearly=res_kw_15158_pu

New Load.load_p1ulv2101_1 conn=wye bus1=p1ulv2101.1 kV=0.12 Vminpu=0.8 Vmaxpu=1.2 model=1 kW=4.174434191547281 kvar=0.8828950767431165 Phases=1 !yearly=res_kw_10971_pu

New Load.load_p1ulv2101_2 conn=wye bus1=p1ulv2101.2 kV=0.12 Vminpu=0.8 Vmaxpu=1.2 model=1 kW=4.174434191547281 kvar=0.8828950767431165 Phases=1 !yearly=res_kw_10971_pu

New Load.load_p1ulv2102_1 conn=wye bus1=p1ulv2102.1 kV=0.12 Vminpu=0.8 Vmaxpu=1.2 model=1 kW=1.8239221488875907 kvar=0.842092183643817 Phases=1 !yearly=res_kw_11680_pu

New Load.load_p1ulv2102_2 conn=wye bus1=p1ulv2102.2 kV=0.12 Vminpu=0.8 Vmaxpu=1.2 model=1 kW=1.8239221488875907 kvar=0.842092183643817 Phases=1 !yearly=res_kw_11680_pu

New Load.load_p1ulv2103_1 conn=wye bus1=p1ulv2103.1 kV=0.12 Vminpu=0.8 Vmaxpu=1.2 model=1 kW=3.4460841500077097 kvar=0.15562665537022718 Phases=1 !yearly=res_kw_8127_pu

New Load.load_p1ulv2103_2 conn=wye bus1=p1ulv2103.2 kV=0.12 Vminpu=0.8 Vmaxpu=1.2 model=1 kW=3.4460841500077097 kvar=0.15562665537022718 Phases=1 !yearly=res_kw_8127_pu

New Load.load_p1ulv2104_1 conn=wye bus1=p1ulv2103.1 kV=0.12 Vminpu=0.8 Vmaxpu=1.2 model=1 kW=1.213865951323732 kvar=0.4075442101516516 Phases=1 !yearly=res_kw_12933_pu

New Load.load_p1ulv2104_2 conn=wye bus1=p1ulv2103.2 kV=0.12 Vminpu=0.8 Vmaxpu=1.2 model=1 kW=1.213865951323732 kvar=0.4075442101516516 Phases=1 !yearly=res_kw_12933_pu

New Load.load_p1ulv2105_1 conn=wye bus1=p1ulv2105.1 kV=0.12 Vminpu=0.8 Vmaxpu=1.2 model=1 kW=4.037961707989467 kvar=0.3691190849967326 Phases=1 !yearly=res_kw_8669_pu

New Load.load_p1ulv2105_2 conn=wye bus1=p1ulv2105.2 kV=0.12 Vminpu=0.8 Vmaxpu=1.2 model=1 kW=4.037961707989467 kvar=0.3691190849967326 Phases=1 !yearly=res_kw_8669_pu

New Load.load_p1ulv2106_1 conn=wye bus1=p1ulv2106.1 kV=0.12 Vminpu=0.8 Vmaxpu=1.2 model=1 kW=1.5573656346516838 kvar=0.5594661892352927 Phases=1 !yearly=res_kw_2816_pu

New Load.load_p1ulv2106_2 conn=wye bus1=p1ulv2106.2 kV=0.12 Vminpu=0.8 Vmaxpu=1.2 model=1 kW=1.5573656346516838 kvar=0.5594661892352927 Phases=1 !yearly=res_kw_2816_pu

New Load.load_p1ulv2107_1 conn=wye bus1=p1ulv2107.1 kV=0.12 Vminpu=0.8 Vmaxpu=1.2 model=1 kW=2.684904254134122 kvar=0.42635901069761617 Phases=1 !yearly=res_kw_2114_pu

New Load.load_p1ulv2107_2 conn=wye bus1=p1ulv2107.2 kV=0.12 Vminpu=0.8 Vmaxpu=1.2 model=1 kW=2.684904254134122 kvar=0.42635901069761617 Phases=1 !yearly=res_kw_2114_pu

New Load.load_p1ulv2108_1 conn=wye bus1=p1ulv2108.1 kV=0.12 Vminpu=0.8 Vmaxpu=1.2 model=1 kW=4.752782214207976 kvar=0.7402032508375102 Phases=1 !yearly=res_kw_13799_pu

New Load.load_p1ulv2108_2 conn=wye bus1=p1ulv2108.2 kV=0.12 Vminpu=0.8 Vmaxpu=1.2 model=1 kW=4.752782214207976 kvar=0.7402032508375102 Phases=1 !yearly=res_kw_13799_pu

New Load.load_p1ulv2109_1 conn=wye bus1=p1ulv2108.1 kV=0.12 Vminpu=0.8 Vmaxpu=1.2 model=1 kW=2.297832728168154 kvar=0.6109723215697453 Phases=1 !yearly=res_kw_7568_pu

New Load.load_p1ulv2109_2 conn=wye bus1=p1ulv2108.2 kV=0.12 Vminpu=0.8 Vmaxpu=1.2 model=1 kW=2.297832728168154 kvar=0.6109723215697453 Phases=1 !yearly=res_kw_7568_pu

New Load.load_p1ulv2110_1 conn=wye bus1=p1ulv2110.1 kV=0.12 Vminpu=0.8 Vmaxpu=1.2 model=1 kW=1.213865951323732 kvar=0.4075442101516516 Phases=1 !yearly=res_kw_12933_pu

New Load.load_p1ulv2110_2 conn=wye bus1=p1ulv2110.2 kV=0.12 Vminpu=0.8 Vmaxpu=1.2 model=1 kW=1.213865951323732 kvar=0.4075442101516516 Phases=1 !yearly=res_kw_12933_pu

New Load.load_p1ulv2111_1 conn=wye bus1=p1ulv2111.1 kV=0.12 Vminpu=0.8 Vmaxpu=1.2 model=1 kW=2.4644531671008476 kvar=0.4817339405405778 Phases=1 !yearly=res_kw_11328_pu

New Load.load_p1ulv2111_2 conn=wye bus1=p1ulv2111.2 kV=0.12 Vminpu=0.8 Vmaxpu=1.2 model=1 kW=2.4644531671008476 kvar=0.4817339405405778 Phases=1 !yearly=res_kw_11328_pu

New Load.load_p1ulv2112_1 conn=wye bus1=p1ulv2112.1 kV=0.12 Vminpu=0.8 Vmaxpu=1.2 model=1 kW=2.2816928104449037 kvar=0.4107329194522798 Phases=1 !yearly=res_kw_4327_pu

New Load.load_p1ulv2112_2 conn=wye bus1=p1ulv2112.2 kV=0.12 Vminpu=0.8 Vmaxpu=1.2 model=1 kW=2.2816928104449037 kvar=0.4107329194522798 Phases=1 !yearly=res_kw_4327_pu

New Load.load_p1ulv2113_1 conn=wye bus1=p1ulv2112.1 kV=0.12 Vminpu=0.8 Vmaxpu=1.2 model=1 kW=1.1816173171316173 kvar=0.6581224543523244 Phases=1 !yearly=res_kw_3201_pu

New Load.load_p1ulv2113_2 conn=wye bus1=p1ulv2112.2 kV=0.12 Vminpu=0.8 Vmaxpu=1.2 model=1 kW=1.1816173171316173 kvar=0.6581224543523244 Phases=1 !yearly=res_kw_3201_pu

New Load.load_p1ulv2114_1 conn=wye bus1=p1ulv2114.1 kV=0.12 Vminpu=0.8 Vmaxpu=1.2 model=1 kW=1.258119021258545 kvar=0.5464257501508941 Phases=1 !yearly=res_kw_771_pu

New Load.load_p1ulv2114_2 conn=wye bus1=p1ulv2114.2 kV=0.12 Vminpu=0.8 Vmaxpu=1.2 model=1 kW=1.258119021258545 kvar=0.5464257501508941 Phases=1 !yearly=res_kw_771_pu

New Load.load_p1ulv2115_1 conn=wye bus1=p1ulv2115.1 kV=0.12 Vminpu=0.8 Vmaxpu=1.2 model=1 kW=0.4616254864593152 kvar=0.17224043852727797 Phases=1 !yearly=res_kw_3726_pu

New Load.load_p1ulv2115_2 conn=wye bus1=p1ulv2115.2 kV=0.12 Vminpu=0.8 Vmaxpu=1.2 model=1 kW=0.4616254864593152 kvar=0.17224043852727797 Phases=1 !yearly=res_kw_3726_pu

New Load.load_p1ulv2116_1 conn=wye bus1=p1ulv2116.1 kV=0.12 Vminpu=0.8 Vmaxpu=1.2 model=1 kW=1.8744605841296944 kvar=0.5892496700768608 Phases=1 !yearly=res_kw_4148_pu

New Load.load_p1ulv2116_2 conn=wye bus1=p1ulv2116.2 kV=0.12 Vminpu=0.8 Vmaxpu=1.2 model=1 kW=1.8744605841296944 kvar=0.5892496700768608 Phases=1 !yearly=res_kw_4148_pu

New Load.load_p1ulv2117_1 conn=wye bus1=p1ulv2116.1 kV=0.12 Vminpu=0.8 Vmaxpu=1.2 model=1 kW=1.0130958252752178 kvar=0.3903425944206818 Phases=1 !yearly=res_kw_7101_pu

New Load.load_p1ulv2117_2 conn=wye bus1=p1ulv2116.2 kV=0.12 Vminpu=0.8 Vmaxpu=1.2 model=1 kW=1.0130958252752178 kvar=0.3903425944206818 Phases=1 !yearly=res_kw_7101_pu
