New Line.l(r:p1udt0lv-p1ulv1) Units=km Length=0.00918554 bus1=p1udt0lv.1.2 bus2=p1ulv1.1.2 switch=n enabled=y phases=2 Linecode=1P_UG_AL_1/0_Brenau_2

New Line.l(r:p1udt0lv-p1ulv971) Units=km Length=0.0105128 bus1=p1udt0lv.1.2 bus2=p1ulv971.1.2 switch=n enabled=y phases=2 Linecode=1P_UG_AL_1/0_Brenau_2

New Line.l(r:p1udm3-p1ulv970) Units=km Length=0.0106328 bus1=p1udm3.1.2 bus2=p1ulv970.1.2 switch=n enabled=y phases=2 Linecode=1P_UG_AL_1/0_Brenau_2

New Line.l(r:p1udm2-p1ulv969) Units=km Length=0.010486200000000001 bus1=p1udm2.1.2 bus2=p1ulv969.1.2 switch=n enabled=y phases=2 Linecode=1P_UG_AL_1/0_Brenau_2

New Line.l(r:p1udm1-p1ulv968) Units=km Length=0.0106688 bus1=p1udm1.1.2 bus2=p1ulv968.1.2 switch=n enabled=y phases=2 Linecode=1P_UG_AL_1/0_Brenau_2

New Line.l(r:p1udm1-p1ulv1413) Units=km Length=0.009159430000000001 bus1=p1udm1.1.2 bus2=p1ulv1413.1.2 switch=n enabled=y phases=2 Linecode=1P_UG_AL_1/0_Brenau_2

New Line.l(r:p1udm1-p1udm2) Units=km Length=0.00957183 bus1=p1udm2.1.2 bus2=p1udm1.1.2 switch=n enabled=y phases=2 Linecode=1P_UG_AL_1/0_Brenau_2

New Line.l(r:p1udm2-p1udm3) Units=km Length=0.00957183 bus1=p1udm3.1.2 bus2=p1udm2.1.2 switch=n enabled=y phases=2 Linecode=1P_UG_AL_1/0_Brenau_2

New Line.l(r:p1udm3-p1udt0lv) Units=km Length=0.00956187 bus1=p1udt0lv.1.2 bus2=p1udm3.1.2 switch=n enabled=y phases=2 Linecode=1P_UG_AL_1/0_Brenau_2

New Line.l(r:p1udm5-p1ulv972) Units=km Length=0.0106987 bus1=p1udm5.1.2 bus2=p1ulv972.1.2 switch=n enabled=y phases=2 Linecode=1P_UG_AL_1/0_Brenau_2

New Line.l(r:p1udm5-p1ulv1450) Units=km Length=0.0088353 bus1=p1udm5.1.2 bus2=p1ulv1450.1.2 switch=n enabled=y phases=2 Linecode=1P_UG_AL_1/0_Brenau_2

New Line.l(r:p1udm6-p1ulv973) Units=km Length=0.0105579 bus1=p1udm6.1.2 bus2=p1ulv973.1.2 switch=n enabled=y phases=2 Linecode=1P_UG_AL_1/0_Brenau_2

New Line.l(r:p1udm7-p1ulv975) Units=km Length=0.0107572 bus1=p1udm7.1.2 bus2=p1ulv975.1.2 switch=n enabled=y phases=2 Linecode=1P_UG_AL_1/0_Brenau_2

New Line.l(r:p1udm6-p1udm7) Units=km Length=0.00957183 bus1=p1udm6.1.2 bus2=p1udm7.1.2 switch=n enabled=y phases=2 Linecode=1P_UG_AL_1/0_Brenau_2

New Line.l(r:p1udm5-p1udm6) Units=km Length=0.00956106 bus1=p1udm5.1.2 bus2=p1udm6.1.2 switch=n enabled=y phases=2 Linecode=1P_UG_AL_1/0_Brenau_2

New Line.l(r:p1udm5-p1udt0lv) Units=km Length=0.00957183 bus1=p1udt0lv.1.2 bus2=p1udm5.1.2 switch=n enabled=y phases=2 Linecode=1P_UG_AL_4/0_Sweetbriar_2

New Line.l(r:p1udt3lv-p1ulv4) Units=km Length=0.0074874 bus1=p1udt3lv.1.2 bus2=p1ulv4.1.2 switch=n enabled=y phases=2 Linecode=1P_OH_AL_2/0_Rucina_2

New Line.l(r:p1udt3lv-p1ulv130) Units=km Length=0.0159582 bus1=p1udt3lv.1.2 bus2=p1ulv130.1.2 switch=n enabled=y phases=2 Linecode=1P_OH_AL_2/0_Rucina_2

New Line.l(r:p1udt3lv-p1ulv133) Units=km Length=0.0120786 bus1=p1udt3lv.1.2 bus2=p1ulv133.1.2 switch=n enabled=y phases=2 Linecode=1P_OH_AL_2/0_Rucina_2

New Line.l(r:p1udm13-p1ulv128) Units=km Length=0.01277 bus1=p1udm13.1.2 bus2=p1ulv128.1.2 switch=n enabled=y phases=2 Linecode=1P_OH_AL_2/0_Rucina_2

New Line.l(r:p1udm13-p1ulv370) Units=km Length=0.00961021 bus1=p1udm13.1.2 bus2=p1ulv370.1.2 switch=n enabled=y phases=2 Linecode=1P_OH_AL_2/0_Rucina_2

New Line.l(r:p1udm19-p1ulv1937) Units=km Length=0.013469 bus1=p1udm19.1.2 bus2=p1ulv1937.1.2 switch=n enabled=y phases=2 Linecode=1P_UG_AL_1/0_Brenau_2

New Line.l(r:p1udm13-p1udm19) Units=km Length=0.0455845 bus1=p1udm13.1.2 bus2=p1udm19.1.2 switch=n enabled=y phases=2 Linecode=1P_OH_AL_4/0_Zuzara_2

New Line.l(r:p1udm13-p1udt3lv) Units=km Length=0.0170675 bus1=p1udt3lv.1.2 bus2=p1udm13.1.2 switch=n enabled=y phases=2 Linecode=1P_OH_AL_2/0_Rucina_2

New Line.l(r:p1udm16-p1ulv368) Units=km Length=0.009426250000000002 bus1=p1udm16.1.2 bus2=p1ulv368.1.2 switch=n enabled=y phases=2 Linecode=1P_OH_AL_2/0_Rucina_2

New Line.l(r:p1udm16-p1ulv1819) Units=km Length=0.0140108 bus1=p1udm16.1.2 bus2=p1ulv1819.1.2 switch=n enabled=y phases=2 Linecode=1P_OH_AL_2/0_Rucina_2

New Line.l(r:p1udm16-p1udt3lv) Units=km Length=0.0170575 bus1=p1udt3lv.1.2 bus2=p1udm16.1.2 switch=n enabled=y phases=2 Linecode=1P_OH_AL_2/0_Rucina_2

New Line.l(r:p1udt5lv-p1ulv6) Units=km Length=0.0096092 bus1=p1udt5lv.1.2 bus2=p1ulv6.1.2 switch=n enabled=y phases=2 Linecode=1P_UG_AL_4/0_Sweetbriar_2

New Line.l(r:p1udt17lv-p1ulv364) Units=km Length=0.0116908 bus1=p1udt17lv.1.2 bus2=p1ulv364.1.2 switch=n enabled=y phases=2 Linecode=1P_UG_AL_1/0_Brenau_2

New Line.l(r:p1udt17lv-p1ulv440) Units=km Length=0.0151391 bus1=p1udt17lv.1.2 bus2=p1ulv440.1.2 switch=n enabled=y phases=2 Linecode=1P_UG_AL_1/0_Brenau_2

New Line.l(r:p1udm97-p1ulv19) Units=km Length=0.0150991 bus1=p1udm97.1.2 bus2=p1ulv19.1.2 switch=n enabled=y phases=2 Linecode=1P_UG_AL_4/0_Sweetbriar_2

New Line.l(r:p1udm97-p1udt17lv) Units=km Length=0.00941237 bus1=p1udt17lv.1.2 bus2=p1udm97.1.2 switch=n enabled=y phases=2 Linecode=1P_UG_AL_4/0_Sweetbriar_2

New Line.l(r:p1udm99-p1ulv439) Units=km Length=0.0151509 bus1=p1udm99.1.2 bus2=p1ulv439.1.2 switch=n enabled=y phases=2 Linecode=1P_UG_AL_1/0_Brenau_2

New Line.l(r:p1udm99-p1udt17lv) Units=km Length=0.00940158 bus1=p1udt17lv.1.2 bus2=p1udm99.1.2 switch=n enabled=y phases=2 Linecode=1P_UG_AL_1/0_Brenau_2

New Line.l(r:p1udt18lv-p1ulv20) Units=km Length=0.0125291 bus1=p1udt18lv.1.2 bus2=p1ulv20.1.2 switch=n enabled=y phases=2 Linecode=1P_UG_AL_1/0_Brenau_2

New Line.l(r:p1udt18lv-p1ulv367) Units=km Length=0.011439500000000002 bus1=p1udt18lv.1.2 bus2=p1ulv367.1.2 switch=n enabled=y phases=2 Linecode=1P_UG_AL_1/0_Brenau_2

New Line.l(r:p1udm102-p1ulv21) Units=km Length=0.0128206 bus1=p1udm102.1.2 bus2=p1ulv21.1.2 switch=n enabled=y phases=2 Linecode=1P_UG_AL_1/0_Brenau_2

New Line.l(r:p1udm102-p1ulv369) Units=km Length=0.0116035 bus1=p1udm102.1.2 bus2=p1ulv369.1.2 switch=n enabled=y phases=2 Linecode=1P_UG_AL_1/0_Brenau_2

New Line.l(r:p1udm103-p1ulv23) Units=km Length=0.0127698 bus1=p1udm103.1.2 bus2=p1ulv23.1.2 switch=n enabled=y phases=2 Linecode=1P_UG_AL_1/0_Brenau_2

New Line.l(r:p1udm102-p1udm103) Units=km Length=0.00940241 bus1=p1udm102.1.2 bus2=p1udm103.1.2 switch=n enabled=y phases=2 Linecode=1P_UG_AL_1/0_Brenau_2

New Line.l(r:p1udm102-p1udt18lv) Units=km Length=0.00941237 bus1=p1udt18lv.1.2 bus2=p1udm102.1.2 switch=n enabled=y phases=2 Linecode=1P_UG_AL_4/0_Sweetbriar_2

New Line.l(r:p1udm104-p1ulv365) Units=km Length=0.0113892 bus1=p1udm104.1.2 bus2=p1ulv365.1.2 switch=n enabled=y phases=2 Linecode=1P_UG_AL_4/0_Sweetbriar_2

New Line.l(r:p1udm104-p1udt18lv) Units=km Length=0.00940158 bus1=p1udt18lv.1.2 bus2=p1udm104.1.2 switch=n enabled=y phases=2 Linecode=1P_UG_AL_4/0_Sweetbriar_2

New Line.l(r:p1udt19lv-p1ulv124) Units=km Length=0.0113767 bus1=p1udt19lv.1.2 bus2=p1ulv124.1.2 switch=n enabled=y phases=2 Linecode=1P_OH_AL_2/0_Rucina_2

New Line.l(r:p1udt19lv-p1ulv551) Units=km Length=0.00821351 bus1=p1udt19lv.1.2 bus2=p1ulv551.1.2 switch=n enabled=y phases=2 Linecode=1P_OH_AL_2/0_Rucina_2

New Line.l(r:p1udm107-p1ulv22) Units=km Length=0.00734413 bus1=p1udm107.1.2 bus2=p1ulv22.1.2 switch=n enabled=y phases=2 Linecode=1P_OH_AL_2/0_Rucina_2

New Line.l(r:p1udm107-p1ulv125) Units=km Length=0.011455 bus1=p1udm107.1.2 bus2=p1ulv125.1.2 switch=n enabled=y phases=2 Linecode=1P_OH_AL_2/0_Rucina_2

New Line.l(r:p1udm107-p1udt19lv) Units=km Length=0.0168474 bus1=p1udt19lv.1.2 bus2=p1udm107.1.2 switch=n enabled=y phases=2 Linecode=1P_OH_AL_2/0_Rucina_2

New Line.l(r:p1udt20lv-p1ulv25) Units=km Length=0.0131934 bus1=p1udt20lv.1.2 bus2=p1ulv25.1.2 switch=n enabled=y phases=2 Linecode=1P_UG_AL_1/0_Brenau_2

New Line.l(r:p1udt20lv-p1ulv60) Units=km Length=0.014165100000000002 bus1=p1udt20lv.1.2 bus2=p1ulv60.1.2 switch=n enabled=y phases=2 Linecode=1P_UG_AL_1/0_Brenau_2

New Line.l(r:p1udm111-p1ulv24) Units=km Length=0.0133141 bus1=p1udm111.1.2 bus2=p1ulv24.1.2 switch=n enabled=y phases=2 Linecode=1P_UG_AL_1/0_Brenau_2

New Line.l(r:p1udm111-p1ulv62) Units=km Length=0.0143776 bus1=p1udm111.1.2 bus2=p1ulv62.1.2 switch=n enabled=y phases=2 Linecode=1P_UG_AL_1/0_Brenau_2

New Line.l(r:p1udm111-p1udt20lv) Units=km Length=0.00940994 bus1=p1udt20lv.1.2 bus2=p1udm111.1.2 switch=n enabled=y phases=2 Linecode=1P_UG_AL_2/0_Converse_2

New Line.l(r:p1udm113-p1ulv27) Units=km Length=0.0100409 bus1=p1udm113.1.2 bus2=p1ulv27.1.2 switch=n enabled=y phases=2 Linecode=1P_UG_AL_1/0_Brenau_2

New Line.l(r:p1udm113-p1ulv59) Units=km Length=0.014663 bus1=p1udm113.1.2 bus2=p1ulv59.1.2 switch=n enabled=y phases=2 Linecode=1P_UG_AL_1/0_Brenau_2

New Line.l(r:p1udm113-p1udt20lv) Units=km Length=0.0094199 bus1=p1udt20lv.1.2 bus2=p1udm113.1.2 switch=n enabled=y phases=2 Linecode=1P_UG_AL_2/0_Converse_2

New Line.l(r:p1udt21lv-p1ulv29) Units=km Length=0.013558 bus1=p1udt21lv.1.2 bus2=p1ulv29.1.2 switch=n enabled=y phases=2 Linecode=1P_UG_AL_1/0_Brenau_2

New Line.l(r:p1udm117-p1ulv28) Units=km Length=0.0133147 bus1=p1udm117.1.2 bus2=p1ulv28.1.2 switch=n enabled=y phases=2 Linecode=1P_UG_AL_1/0_Brenau_2

New Line.l(r:p1udm117-p1ulv49) Units=km Length=0.014371100000000001 bus1=p1udm117.1.2 bus2=p1ulv49.1.2 switch=n enabled=y phases=2 Linecode=1P_UG_AL_1/0_Brenau_2

New Line.l(r:p1udm117-p1udt21lv) Units=km Length=0.00940994 bus1=p1udt21lv.1.2 bus2=p1udm117.1.2 switch=n enabled=y phases=2 Linecode=1P_UG_AL_2/0_Converse_2

New Line.l(r:p1udm119-p1ulv30) Units=km Length=0.013231 bus1=p1udm119.1.2 bus2=p1ulv30.1.2 switch=n enabled=y phases=2 Linecode=1P_UG_AL_1/0_Brenau_2

New Line.l(r:p1udm119-p1ulv47) Units=km Length=0.0138808 bus1=p1udm119.1.2 bus2=p1ulv47.1.2 switch=n enabled=y phases=2 Linecode=1P_UG_AL_4/0_Sweetbriar_2

New Line.l(r:p1udm120-p1ulv45) Units=km Length=0.0140521 bus1=p1udm120.1.2 bus2=p1ulv45.1.2 switch=n enabled=y phases=2 Linecode=1P_UG_AL_1/0_Brenau_2

New Line.l(r:p1udm119-p1udm120) Units=km Length=0.0188199 bus1=p1udm119.1.2 bus2=p1udm120.1.2 switch=n enabled=y phases=2 Linecode=1P_UG_AL_1/0_Brenau_2

New Line.l(r:p1udm119-p1udt21lv) Units=km Length=0.0094199 bus1=p1udt21lv.1.2 bus2=p1udm119.1.2 switch=n enabled=y phases=2 Linecode=1P_UG_AL_4/0_Sweetbriar_2

New Line.l(r:p1udt22lv-p1ulv31) Units=km Length=0.013198500000000002 bus1=p1udt22lv.1.2 bus2=p1ulv31.1.2 switch=n enabled=y phases=2 Linecode=1P_UG_AL_1/0_Brenau_2

New Line.l(r:p1udt22lv-p1ulv46) Units=km Length=0.0139101 bus1=p1udt22lv.1.2 bus2=p1ulv46.1.2 switch=n enabled=y phases=2 Linecode=1P_UG_AL_1/0_Brenau_2

New Line.l(r:p1udt23lv-p1ulv35) Units=km Length=0.0101017 bus1=p1udt23lv.1.2 bus2=p1ulv35.1.2 switch=n enabled=y phases=2 Linecode=1P_UG_AL_1/0_Brenau_2

New Line.l(r:p1udt23lv-p1ulv43) Units=km Length=0.0159149 bus1=p1udt23lv.1.2 bus2=p1ulv43.1.2 switch=n enabled=y phases=2 Linecode=1P_UG_AL_1/0_Brenau_2

New Line.l(r:p1udm126-p1ulv34) Units=km Length=0.0104416 bus1=p1udm126.1.2 bus2=p1ulv34.1.2 switch=n enabled=y phases=2 Linecode=1P_UG_AL_1/0_Brenau_2

New Line.l(r:p1udm126-p1ulv44) Units=km Length=0.0144825 bus1=p1udm126.1.2 bus2=p1ulv44.1.2 switch=n enabled=y phases=2 Linecode=1P_UG_AL_2/0_Converse_2

New Line.l(r:p1udm125-p1ulv33) Units=km Length=0.0134123 bus1=p1udm125.1.2 bus2=p1ulv33.1.2 switch=n enabled=y phases=2 Linecode=1P_UG_AL_1/0_Brenau_2

New Line.l(r:p1udm125-p1udm126) Units=km Length=0.0094199 bus1=p1udm126.1.2 bus2=p1udm125.1.2 switch=n enabled=y phases=2 Linecode=1P_UG_AL_1/0_Brenau_2

New Line.l(r:p1udm126-p1udt23lv) Units=km Length=0.00940994 bus1=p1udt23lv.1.2 bus2=p1udm126.1.2 switch=n enabled=y phases=2 Linecode=1P_UG_AL_4/0_Sweetbriar_2

New Line.l(r:p1udm128-p1ulv36) Units=km Length=0.0100042 bus1=p1udm128.1.2 bus2=p1ulv36.1.2 switch=n enabled=y phases=2 Linecode=1P_UG_AL_1/0_Brenau_2

New Line.l(r:p1udm128-p1ulv42) Units=km Length=0.0155489 bus1=p1udm128.1.2 bus2=p1ulv42.1.2 switch=n enabled=y phases=2 Linecode=1P_UG_AL_1/0_Brenau_2

New Line.l(r:p1udm128-p1udt23lv) Units=km Length=0.00940994 bus1=p1udt23lv.1.2 bus2=p1udm128.1.2 switch=n enabled=y phases=2 Linecode=1P_UG_AL_1/0_Brenau_2

New Line.l(r:p1udt24lv-p1ulv37) Units=km Length=0.00995113 bus1=p1udt24lv.1.2 bus2=p1ulv37.1.2 switch=n enabled=y phases=2 Linecode=1P_UG_AL_1/0_Brenau_2

New Line.l(r:p1udt24lv-p1ulv1801) Units=km Length=0.00893322 bus1=p1udt24lv.1.2 bus2=p1ulv1801.1.2 switch=n enabled=y phases=2 Linecode=1P_UG_AL_4/0_Sweetbriar_2

New Line.l(r:p1udm134-p1ulv38) Units=km Length=0.011321100000000002 bus1=p1udm134.1.2 bus2=p1ulv38.1.2 switch=n enabled=y phases=2 Linecode=1P_UG_AL_1/0_Brenau_2

New Line.l(r:p1udm134-p1ulv1821) Units=km Length=0.00813045 bus1=p1udm134.1.2 bus2=p1ulv1821.1.2 switch=n enabled=y phases=2 Linecode=1P_UG_AL_1/0_Brenau_2

New Line.l(r:p1udm135-p1ulv39) Units=km Length=0.0113594 bus1=p1udm135.1.2 bus2=p1ulv39.1.2 switch=n enabled=y phases=2 Linecode=1P_UG_AL_1/0_Brenau_2

New Line.l(r:p1udm135-p1ulv529) Units=km Length=0.00862766 bus1=p1udm135.1.2 bus2=p1ulv529.1.2 switch=n enabled=y phases=2 Linecode=1P_UG_AL_1/0_Brenau_2

New Line.l(r:p1udm134-p1udm135) Units=km Length=0.00948132 bus1=p1udm134.1.2 bus2=p1udm135.1.2 switch=n enabled=y phases=2 Linecode=1P_UG_AL_1/0_Brenau_2

New Line.l(r:p1udm134-p1udt25lv) Units=km Length=0.00948214 bus1=p1udt25lv.1.2 bus2=p1udm134.1.2 switch=n enabled=y phases=2 Linecode=1P_UG_AL_2/0_Converse_2

New Line.l(r:p1udm142-p1ulv1963) Units=km Length=0.00710634 bus1=p1udm142.1.2 bus2=p1ulv1963.1.2 switch=n enabled=y phases=2 Linecode=1P_UG_AL_1/0_Brenau_2

New Line.l(r:p1udm139-p1ulv291) Units=km Length=0.0100283 bus1=p1udm139.1.2 bus2=p1ulv291.1.2 switch=n enabled=y phases=2 Linecode=1P_UG_AL_1/0_Brenau_2

New Line.l(r:p1udm137-p1ulv68) Units=km Length=0.01067 bus1=p1udm137.1.2 bus2=p1ulv68.1.2 switch=n enabled=y phases=2 Linecode=1P_UG_AL_1/0_Brenau_2

New Line.l(r:p1udm137-p1ulv69) Units=km Length=0.018461 bus1=p1udm137.1.2 bus2=p1ulv69.1.2 switch=n enabled=y phases=2 Linecode=1P_UG_AL_1/0_Brenau_2

New Line.l(r:p1udm136-p1ulv67) Units=km Length=0.0107216 bus1=p1udm136.1.2 bus2=p1ulv67.1.2 switch=n enabled=y phases=2 Linecode=1P_UG_AL_1/0_Brenau_2

New Line.l(r:p1udm136-p1udm137) Units=km Length=0.0188207 bus1=p1udm137.1.2 bus2=p1udm136.1.2 switch=n enabled=y phases=2 Linecode=1P_UG_AL_1/0_Brenau_2

New Line.l(r:p1udm137-p1udm139) Units=km Length=0.0188207 bus1=p1udm139.1.2 bus2=p1udm137.1.2 switch=n enabled=y phases=2 Linecode=1P_UG_AL_1/0_Brenau_2

New Line.l(r:p1udm139-p1udm142) Units=km Length=0.0188921 bus1=p1udm142.1.2 bus2=p1udm139.1.2 switch=n enabled=y phases=2 Linecode=1P_UG_AL_4/0_Sweetbriar_2

New Line.l(r:p1udm142-p1udt25lv) Units=km Length=0.00948214 bus1=p1udt25lv.1.2 bus2=p1udm142.1.2 switch=n enabled=y phases=2 Linecode=1P_UG_AL_4/0_Sweetbriar_2

New Line.l(r:p1udt26lv-p1ulv40) Units=km Length=0.0109139 bus1=p1udt26lv.1.2 bus2=p1ulv40.1.2 switch=n enabled=y phases=2 Linecode=1P_UG_AL_1/0_Brenau_2

New Line.l(r:p1udt26lv-p1ulv1803) Units=km Length=0.00944238 bus1=p1udt26lv.1.2 bus2=p1ulv1803.1.2 switch=n enabled=y phases=2 Linecode=1P_UG_AL_2/0_Converse_2

New Line.l(r:p1udm145-p1ulv1804) Units=km Length=0.0159349 bus1=p1udm145.1.2 bus2=p1ulv1804.1.2 switch=n enabled=y phases=2 Linecode=1P_UG_AL_1/0_Brenau_2

New Line.l(r:p1udm145-p1udt26lv) Units=km Length=0.00948132 bus1=p1udt26lv.1.2 bus2=p1udm145.1.2 switch=n enabled=y phases=2 Linecode=1P_UG_AL_1/0_Brenau_2

New Line.l(r:p1udt27lv-p1ulv50) Units=km Length=0.0110257 bus1=p1udt27lv.1.2 bus2=p1ulv50.1.2 switch=n enabled=y phases=2 Linecode=1P_UG_AL_1/0_Brenau_2

New Line.l(r:p1udm147-p1ulv51) Units=km Length=0.010417500000000001 bus1=p1udm147.1.2 bus2=p1ulv51.1.2 switch=n enabled=y phases=2 Linecode=1P_UG_AL_1/0_Brenau_2

New Line.l(r:p1udm147-p1udt27lv) Units=km Length=0.00941074 bus1=p1udt27lv.1.2 bus2=p1udm147.1.2 switch=n enabled=y phases=2 Linecode=1P_UG_AL_1/0_Brenau_2

New Line.l(r:p1udm149-p1ulv1811) Units=km Length=0.0117028 bus1=p1udm149.1.2 bus2=p1ulv1811.1.2 switch=n enabled=y phases=2 Linecode=1P_UG_AL_1/0_Brenau_2

New Line.l(r:p1udm148-p1ulv66) Units=km Length=0.011869100000000002 bus1=p1udm148.1.2 bus2=p1ulv66.1.2 switch=n enabled=y phases=2 Linecode=1P_UG_AL_1/0_Brenau_2

New Line.l(r:p1udm148-p1udm149) Units=km Length=0.00941074 bus1=p1udm149.1.2 bus2=p1udm148.1.2 switch=n enabled=y phases=2 Linecode=1P_UG_AL_1/0_Brenau_2

New Line.l(r:p1udm149-p1udt27lv) Units=km Length=0.00940994 bus1=p1udt27lv.1.2 bus2=p1udm149.1.2 switch=n enabled=y phases=2 Linecode=1P_UG_AL_2/0_Converse_2

New Line.l(r:p1udt28lv-p1ulv55) Units=km Length=0.0105423 bus1=p1udt28lv.1.2 bus2=p1ulv55.1.2 switch=n enabled=y phases=2 Linecode=1P_UG_AL_1/0_Brenau_2

New Line.l(r:p1udm151-p1ulv53) Units=km Length=0.010114900000000001 bus1=p1udm151.1.2 bus2=p1ulv53.1.2 switch=n enabled=y phases=2 Linecode=1P_UG_AL_2/0_Converse_2

New Line.l(r:p1udm150-p1ulv52) Units=km Length=0.0101271 bus1=p1udm150.1.2 bus2=p1ulv52.1.2 switch=n enabled=y phases=2 Linecode=1P_UG_AL_1/0_Brenau_2

New Line.l(r:p1udm150-p1udm151) Units=km Length=0.00940994 bus1=p1udm151.1.2 bus2=p1udm150.1.2 switch=n enabled=y phases=2 Linecode=1P_UG_AL_1/0_Brenau_2

New Line.l(r:p1udm151-p1udt28lv) Units=km Length=0.00941074 bus1=p1udt28lv.1.2 bus2=p1udm151.1.2 switch=n enabled=y phases=2 Linecode=1P_UG_AL_4/0_Sweetbriar_2

New Line.l(r:p1udm153-p1ulv57) Units=km Length=0.00996611 bus1=p1udm153.1.2 bus2=p1ulv57.1.2 switch=n enabled=y phases=2 Linecode=1P_UG_AL_1/0_Brenau_2

New Line.l(r:p1udm153-p1udt28lv) Units=km Length=0.00941074 bus1=p1udt28lv.1.2 bus2=p1udm153.1.2 switch=n enabled=y phases=2 Linecode=1P_UG_AL_1/0_Brenau_2

New Line.l(r:p1udt29lv-p1ulv56) Units=km Length=0.0104315 bus1=p1udt29lv.1.2 bus2=p1ulv56.1.2 switch=n enabled=y phases=2 Linecode=1P_OH_AL_2/0_Rucina_2

New Line.l(r:p1udt29lv-p1ulv63) Units=km Length=0.00817588 bus1=p1udt29lv.1.2 bus2=p1ulv63.1.2 switch=n enabled=y phases=2 Linecode=1P_OH_AL_2/0_Rucina_2

New Line.l(r:p1udm156-p1ulv64) Units=km Length=0.00747151 bus1=p1udm156.1.2 bus2=p1ulv64.1.2 switch=n enabled=y phases=2 Linecode=1P_OH_AL_2/0_Rucina_2

New Line.l(r:p1udm156-p1ulv65) Units=km Length=0.0178762 bus1=p1udm156.1.2 bus2=p1ulv65.1.2 switch=n enabled=y phases=2 Linecode=1P_OH_AL_2/0_Rucina_2

New Line.l(r:p1udm156-p1udt29lv) Units=km Length=0.0170874 bus1=p1udt29lv.1.2 bus2=p1udm156.1.2 switch=n enabled=y phases=2 Linecode=1P_OH_AL_2/0_Rucina_2

New Line.l(r:p1udm174-p1ulv75) Units=km Length=0.0091358 bus1=p1udm174.1.2 bus2=p1ulv75.1.2 switch=n enabled=y phases=2 Linecode=1P_UG_AL_1/0_Brenau_2

New Line.l(r:p1udm174-p1ulv431) Units=km Length=0.0103841 bus1=p1udm174.1.2 bus2=p1ulv431.1.2 switch=n enabled=y phases=2 Linecode=1P_UG_AL_1/0_Brenau_2

New Line.l(r:p1udm177-p1ulv1838) Units=km Length=0.026113700000000004 bus1=p1udm177.1.2 bus2=p1ulv1838.1.2 switch=n enabled=y phases=2 Linecode=1P_UG_AL_1/0_Brenau_2

New Line.l(r:p1udm174-p1udm177) Units=km Length=0.00940324 bus1=p1udm174.1.2 bus2=p1udm177.1.2 switch=n enabled=y phases=2 Linecode=1P_UG_AL_1/0_Brenau_2

New Line.l(r:p1udm174-p1udt34lv) Units=km Length=0.00940241 bus1=p1udt34lv.1.2 bus2=p1udm174.1.2 switch=n enabled=y phases=2 Linecode=1P_UG_AL_4/0_Sweetbriar_2

New Line.l(r:p1udm176-p1ulv432) Units=km Length=0.0116695 bus1=p1udm176.1.2 bus2=p1ulv432.1.2 switch=n enabled=y phases=2 Linecode=1P_UG_AL_2/0_Converse_2

New Line.l(r:p1udm176-p1udt34lv) Units=km Length=0.0470129 bus1=p1udt34lv.1.2 bus2=p1udm176.1.2 switch=n enabled=y phases=2 Linecode=1P_UG_AL_2/0_Converse_2

New Line.l(r:p1udt35lv-p1ulv76) Units=km Length=0.0159502 bus1=p1udt35lv.1.2 bus2=p1ulv76.1.2 switch=n enabled=y phases=2 Linecode=1P_UG_AL_1/0_Brenau_2

New Line.l(r:p1udt35lv-p1ulv607) Units=km Length=0.011705200000000002 bus1=p1udt35lv.1.2 bus2=p1ulv607.1.2 switch=n enabled=y phases=2 Linecode=1P_UG_AL_1/0_Brenau_2

New Line.l(r:p1udm179-p1ulv77) Units=km Length=0.016067 bus1=p1udm179.1.2 bus2=p1ulv77.1.2 switch=n enabled=y phases=2 Linecode=1P_UG_AL_1/0_Brenau_2

New Line.l(r:p1udm179-p1ulv81) Units=km Length=0.0136456 bus1=p1udm179.1.2 bus2=p1ulv81.1.2 switch=n enabled=y phases=2 Linecode=1P_UG_AL_1/0_Brenau_2

New Line.l(r:p1udm180-p1ulv78) Units=km Length=0.016588700000000005 bus1=p1udm180.1.2 bus2=p1ulv78.1.2 switch=n enabled=y phases=2 Linecode=1P_UG_AL_1/0_Brenau_2

New Line.l(r:p1udm180-p1ulv177) Units=km Length=0.0133073 bus1=p1udm180.1.2 bus2=p1ulv177.1.2 switch=n enabled=y phases=2 Linecode=1P_UG_AL_1/0_Brenau_2

New Line.l(r:p1udm179-p1udm180) Units=km Length=0.00948132 bus1=p1udm179.1.2 bus2=p1udm180.1.2 switch=n enabled=y phases=2 Linecode=1P_UG_AL_4/0_Sweetbriar_2

New Line.l(r:p1udm179-p1udt35lv) Units=km Length=0.00948132 bus1=p1udt35lv.1.2 bus2=p1udm179.1.2 switch=n enabled=y phases=2 Linecode=1P_UG_AL_4/0_Sweetbriar_2

New Line.l(r:p1udm183-p1ulv356) Units=km Length=0.0127143 bus1=p1udm183.1.2 bus2=p1ulv356.1.2 switch=n enabled=y phases=2 Linecode=1P_UG_AL_1/0_Brenau_2

New Line.l(r:p1udm183-p1udt35lv) Units=km Length=0.0377858 bus1=p1udt35lv.1.2 bus2=p1udm183.1.2 switch=n enabled=y phases=2 Linecode=1P_UG_AL_1/0_Brenau_2

New Line.l(r:p1udt36lv-p1ulv79) Units=km Length=0.0161339 bus1=p1udt36lv.1.2 bus2=p1ulv79.1.2 switch=n enabled=y phases=2 Linecode=1P_UG_AL_1/0_Brenau_2

New Line.l(r:p1udt36lv-p1ulv178) Units=km Length=0.011783 bus1=p1udt36lv.1.2 bus2=p1ulv178.1.2 switch=n enabled=y phases=2 Linecode=1P_UG_AL_1/0_Brenau_2

New Line.l(r:p1udm187-p1ulv612) Units=km Length=0.0149221 bus1=p1udm187.1.2 bus2=p1ulv612.1.2 switch=n enabled=y phases=2 Linecode=1P_UG_AL_1/0_Brenau_2

New Line.l(r:p1udm187-p1ulv731) Units=km Length=0.0141131 bus1=p1udm187.1.2 bus2=p1ulv731.1.2 switch=n enabled=y phases=2 Linecode=1P_UG_AL_1/0_Brenau_2

New Line.l(r:p1udm187-p1udt36lv) Units=km Length=0.00949129 bus1=p1udt36lv.1.2 bus2=p1udm187.1.2 switch=n enabled=y phases=2 Linecode=1P_UG_AL_2/0_Converse_2

New Line.l(r:p1udt37lv-p1ulv80) Units=km Length=0.00935427 bus1=p1udt37lv.1.2 bus2=p1ulv80.1.2 switch=n enabled=y phases=2 Linecode=1P_UG_AL_2/0_Converse_2

New Line.l(r:p1udt37lv-p1ulv1800) Units=km Length=0.0111297 bus1=p1udt37lv.1.2 bus2=p1ulv1800.1.2 switch=n enabled=y phases=2 Linecode=1P_UG_AL_1/0_Brenau_2

New Line.l(r:p1udm190-p1ulv85) Units=km Length=0.00840724 bus1=p1udm190.1.2 bus2=p1ulv85.1.2 switch=n enabled=y phases=2 Linecode=1P_UG_AL_2/0_Converse_2

New Line.l(r:p1udm190-p1ulv353) Units=km Length=0.0108315 bus1=p1udm190.1.2 bus2=p1ulv353.1.2 switch=n enabled=y phases=2 Linecode=1P_UG_AL_1/0_Brenau_2

New Line.l(r:p1udm190-p1udt37lv) Units=km Length=0.00947217 bus1=p1udt37lv.1.2 bus2=p1udm190.1.2 switch=n enabled=y phases=2 Linecode=1P_UG_AL_4/0_Sweetbriar_2

New Line.l(r:p1udt38lv-p1ulv83) Units=km Length=0.0157199 bus1=p1udt38lv.1.2 bus2=p1ulv83.1.2 switch=n enabled=y phases=2 Linecode=1P_UG_AL_1/0_Brenau_2

New Line.l(r:p1udt38lv-p1ulv403) Units=km Length=0.012787 bus1=p1udt38lv.1.2 bus2=p1ulv403.1.2 switch=n enabled=y phases=2 Linecode=1P_UG_AL_1/0_Brenau_2

New Line.l(r:p1udm193-p1ulv82) Units=km Length=0.0157523 bus1=p1udm193.1.2 bus2=p1ulv82.1.2 switch=n enabled=y phases=2 Linecode=1P_UG_AL_1/0_Brenau_2

New Line.l(r:p1udm193-p1ulv721) Units=km Length=0.012534000000000002 bus1=p1udm193.1.2 bus2=p1ulv721.1.2 switch=n enabled=y phases=2 Linecode=1P_UG_AL_1/0_Brenau_2

New Line.l(r:p1udm193-p1udt38lv) Units=km Length=0.00948214 bus1=p1udt38lv.1.2 bus2=p1udm193.1.2 switch=n enabled=y phases=2 Linecode=1P_UG_AL_1/0_Brenau_2

New Line.l(r:p1udm195-p1ulv86) Units=km Length=0.0108405 bus1=p1udm195.1.2 bus2=p1ulv86.1.2 switch=n enabled=y phases=2 Linecode=1P_UG_AL_1/0_Brenau_2

New Line.l(r:p1udm195-p1ulv402) Units=km Length=0.013239200000000001 bus1=p1udm195.1.2 bus2=p1ulv402.1.2 switch=n enabled=y phases=2 Linecode=1P_UG_AL_1/0_Brenau_2

New Line.l(r:p1udm195-p1udt38lv) Units=km Length=0.00947217 bus1=p1udt38lv.1.2 bus2=p1udm195.1.2 switch=n enabled=y phases=2 Linecode=1P_UG_AL_2/0_Converse_2

New Line.l(r:p1udt39lv-p1ulv88) Units=km Length=0.0154029 bus1=p1udt39lv.1.2 bus2=p1ulv88.1.2 switch=n enabled=y phases=2 Linecode=1P_UG_AL_1/0_Brenau_2

New Line.l(r:p1udt39lv-p1ulv594) Units=km Length=0.027414300000000003 bus1=p1udt39lv.1.2 bus2=p1ulv594.1.2 switch=n enabled=y phases=2 Linecode=1P_UG_AL_1/0_Brenau_2

New Line.l(r:p1udt39lv-p1ulv1807) Units=km Length=0.0106927 bus1=p1udt39lv.1.2 bus2=p1ulv1807.1.2 switch=n enabled=y phases=2 Linecode=1P_UG_AL_1/0_Brenau_2

New Line.l(r:p1udm199-p1ulv87) Units=km Length=0.0180524 bus1=p1udm199.1.2 bus2=p1ulv87.1.2 switch=n enabled=y phases=2 Linecode=1P_UG_AL_1/0_Brenau_2

New Line.l(r:p1udm199-p1ulv1805) Units=km Length=0.0114379 bus1=p1udm199.1.2 bus2=p1ulv1805.1.2 switch=n enabled=y phases=2 Linecode=1P_UG_AL_1/0_Brenau_2

New Line.l(r:p1udm203-p1ulv110) Units=km Length=0.010558 bus1=p1udm203.1.2 bus2=p1ulv110.1.2 switch=n enabled=y phases=2 Linecode=1P_UG_AL_1/0_Brenau_2

New Line.l(r:p1udm199-p1udm203) Units=km Length=0.00951286 bus1=p1udm199.1.2 bus2=p1udm203.1.2 switch=n enabled=y phases=2 Linecode=1P_UG_AL_1/0_Brenau_2

New Line.l(r:p1udm199-p1udt39lv) Units=km Length=0.0095137 bus1=p1udt39lv.1.2 bus2=p1udm199.1.2 switch=n enabled=y phases=2 Linecode=1P_UG_AL_2/0_Converse_2

New Line.l(r:p1udm201-p1ulv89) Units=km Length=0.0135086 bus1=p1udm201.1.2 bus2=p1ulv89.1.2 switch=n enabled=y phases=2 Linecode=1P_UG_AL_1/0_Brenau_2

New Line.l(r:p1udm201-p1ulv1806) Units=km Length=0.0104984 bus1=p1udm201.1.2 bus2=p1ulv1806.1.2 switch=n enabled=y phases=2 Linecode=1P_UG_AL_1/0_Brenau_2

New Line.l(r:p1udm204-p1ulv111) Units=km Length=0.011459400000000002 bus1=p1udm204.1.2 bus2=p1ulv111.1.2 switch=n enabled=y phases=2 Linecode=1P_UG_AL_1/0_Brenau_2

New Line.l(r:p1udm202-p1ulv91) Units=km Length=0.0147534 bus1=p1udm202.1.2 bus2=p1ulv91.1.2 switch=n enabled=y phases=2 Linecode=1P_UG_AL_2/0_Converse_2

New Line.l(r:p1udm202-p1udm204) Units=km Length=0.0190158 bus1=p1udm204.1.2 bus2=p1udm202.1.2 switch=n enabled=y phases=2 Linecode=1P_UG_AL_2/0_Converse_2

New Line.l(r:p1udm201-p1udm204) Units=km Length=0.00951286 bus1=p1udm201.1.2 bus2=p1udm204.1.2 switch=n enabled=y phases=2 Linecode=1P_UG_AL_4/0_Sweetbriar_2

New Line.l(r:p1udm201-p1udt39lv) Units=km Length=0.009502890000000002 bus1=p1udt39lv.1.2 bus2=p1udm201.1.2 switch=n enabled=y phases=2 Linecode=1P_UG_AL_4/0_Sweetbriar_2

New Line.l(r:p1udt40lv-p1ulv115) Units=km Length=0.00987843 bus1=p1udt40lv.1.2 bus2=p1ulv115.1.2 switch=n enabled=y phases=2 Linecode=1P_UG_AL_1/0_Brenau_2

New Line.l(r:p1udm210-p1ulv93) Units=km Length=0.0144539 bus1=p1udm210.1.2 bus2=p1ulv93.1.2 switch=n enabled=y phases=2 Linecode=1P_UG_AL_1/0_Brenau_2

New Line.l(r:p1udm210-p1ulv98) Units=km Length=0.015445 bus1=p1udm210.1.2 bus2=p1ulv98.1.2 switch=n enabled=y phases=2 Linecode=1P_UG_AL_1/0_Brenau_2

New Line.l(r:p1udm210-p1udt40lv) Units=km Length=0.0190166 bus1=p1udt40lv.1.2 bus2=p1udm210.1.2 switch=n enabled=y phases=2 Linecode=1P_UG_AL_4/0_Sweetbriar_2

New Line.l(r:p1udm213-p1ulv114) Units=km Length=0.00942962 bus1=p1udm213.1.2 bus2=p1ulv114.1.2 switch=n enabled=y phases=2 Linecode=1P_UG_AL_1/0_Brenau_2

New Line.l(r:p1udm209-p1ulv90) Units=km Length=0.013675400000000002 bus1=p1udm209.1.2 bus2=p1ulv90.1.2 switch=n enabled=y phases=2 Linecode=1P_UG_AL_4/0_Sweetbriar_2

New Line.l(r:p1udm209-p1ulv113) Units=km Length=0.0116407 bus1=p1udm209.1.2 bus2=p1ulv113.1.2 switch=n enabled=y phases=2 Linecode=1P_UG_AL_1/0_Brenau_2

New Line.l(r:p1udm209-p1ulv512) Units=km Length=0.0286575 bus1=p1udm209.1.2 bus2=p1ulv512.1.2 switch=n enabled=y phases=2 Linecode=1P_UG_AL_1/0_Brenau_2

New Line.l(r:p1udm209-p1udm213) Units=km Length=0.009502890000000002 bus1=p1udm213.1.2 bus2=p1udm209.1.2 switch=n enabled=y phases=2 Linecode=1P_UG_AL_4/0_Sweetbriar_2

New Line.l(r:p1udm213-p1udt40lv) Units=km Length=0.00951286 bus1=p1udt40lv.1.2 bus2=p1udm213.1.2 switch=n enabled=y phases=2 Linecode=1P_UG_AL_4/0_Sweetbriar_2

New Line.l(r:p1udt41lv-p1ulv96) Units=km Length=0.00936617 bus1=p1udt41lv.1.2 bus2=p1ulv96.1.2 switch=n enabled=y phases=2 Linecode=1P_UG_AL_1/0_Brenau_2

New Line.l(r:p1udt41lv-p1ulv1942) Units=km Length=0.0308949 bus1=p1udt41lv.1.2 bus2=p1ulv1942.1.2 switch=n enabled=y phases=2 Linecode=1P_UG_AL_1/0_Brenau_2

New Line.l(r:p1udm216-p1ulv94) Units=km Length=0.00925311 bus1=p1udm216.1.2 bus2=p1ulv94.1.2 switch=n enabled=y phases=2 Linecode=1P_UG_AL_1/0_Brenau_2

New Line.l(r:p1udm222-p1ulv1814) Units=km Length=0.0108344 bus1=p1udm222.1.2 bus2=p1ulv1814.1.2 switch=n enabled=y phases=2 Linecode=1P_UG_AL_1/0_Brenau_2

New Line.l(r:p1udm221-p1ulv1812) Units=km Length=0.0105646 bus1=p1udm221.1.2 bus2=p1ulv1812.1.2 switch=n enabled=y phases=2 Linecode=1P_UG_AL_4/0_Sweetbriar_2

New Line.l(r:p1udm221-p1udm222) Units=km Length=0.00951286 bus1=p1udm222.1.2 bus2=p1udm221.1.2 switch=n enabled=y phases=2 Linecode=1P_UG_AL_4/0_Sweetbriar_2

New Line.l(r:p1udm216-p1udm222) Units=km Length=0.00951203 bus1=p1udm216.1.2 bus2=p1udm222.1.2 switch=n enabled=y phases=2 Linecode=1P_UG_AL_4/0_Sweetbriar_2

New Line.l(r:p1udm216-p1udt41lv) Units=km Length=0.00951286 bus1=p1udt41lv.1.2 bus2=p1udm216.1.2 switch=n enabled=y phases=2 Linecode=1P_UG_AL_4/0_Sweetbriar_2

New Line.l(r:p1udm219-p1ulv104) Units=km Length=0.0098518 bus1=p1udm219.1.2 bus2=p1ulv104.1.2 switch=n enabled=y phases=2 Linecode=1P_UG_AL_1/0_Brenau_2

New Line.l(r:p1udm218-p1ulv103) Units=km Length=0.0096927 bus1=p1udm218.1.2 bus2=p1ulv103.1.2 switch=n enabled=y phases=2 Linecode=1P_UG_AL_1/0_Brenau_2

New Line.l(r:p1udm218-p1ulv109) Units=km Length=0.026602 bus1=p1udm218.1.2 bus2=p1ulv109.1.2 switch=n enabled=y phases=2 Linecode=1P_UG_AL_1/0_Brenau_2

New Line.l(r:p1udm218-p1udm219) Units=km Length=0.00951203 bus1=p1udm219.1.2 bus2=p1udm218.1.2 switch=n enabled=y phases=2 Linecode=1P_UG_AL_1/0_Brenau_2

New Line.l(r:p1udm219-p1udt41lv) Units=km Length=0.00951286 bus1=p1udt41lv.1.2 bus2=p1udm219.1.2 switch=n enabled=y phases=2 Linecode=1P_UG_AL_1/0_Brenau_2

New Line.l(r:p1udm224-p1ulv97) Units=km Length=0.01433 bus1=p1udm224.1.2 bus2=p1ulv97.1.2 switch=n enabled=y phases=2 Linecode=1P_UG_AL_4/0_Sweetbriar_2

New Line.l(r:p1udm224-p1ulv116) Units=km Length=0.009807780000000002 bus1=p1udm224.1.2 bus2=p1ulv116.1.2 switch=n enabled=y phases=2 Linecode=1P_UG_AL_2/0_Converse_2
