New Load.load_p1ulv1_1 conn=wye bus1=p1ulv1.1 kV=0.12 Vminpu=0.8 Vmaxpu=1.2 model=1 kW=3.3127310915680166 kvar=0.9050034069254406 Phases=1 !yearly=res_kw_3253_pu

New Load.load_p1ulv1_2 conn=wye bus1=p1ulv1.2 kV=0.12 Vminpu=0.8 Vmaxpu=1.2 model=1 kW=3.3127310915680166 kvar=0.9050034069254406 Phases=1 !yearly=res_kw_3253_pu

New Load.load_p1ulv4_1 conn=wye bus1=p1ulv4.1 kV=0.12 Vminpu=0.8 Vmaxpu=1.2 model=1 kW=1.0691083893223214 kvar=0.3885962745206975 Phases=1 !yearly=res_kw_2060_pu

New Load.load_p1ulv4_2 conn=wye bus1=p1ulv4.2 kV=0.12 Vminpu=0.8 Vmaxpu=1.2 model=1 kW=1.0691083893223214 kvar=0.3885962745206975 Phases=1 !yearly=res_kw_2060_pu

New Load.load_p1ulv5 conn=wye bus1=p1ulv5.1.2.3 kV=0.48 Vminpu=0.8 Vmaxpu=1.2 model=1 kW=38.402512485328515 kvar=9.870541264797827 Phases=3 !yearly=com_kw_2320_pu

New Load.load_p1ulv6_1 conn=wye bus1=p1ulv6.1 kV=0.12 Vminpu=0.8 Vmaxpu=1.2 model=1 kW=5.9356209562268605 kvar=0.6170228537432316 Phases=1 !yearly=com_kw_31518_pu

New Load.load_p1ulv6_2 conn=wye bus1=p1ulv6.2 kV=0.12 Vminpu=0.8 Vmaxpu=1.2 model=1 kW=5.9356209562268605 kvar=0.6170228537432316 Phases=1 !yearly=com_kw_31518_pu

New Load.load_p1ulv13 conn=wye bus1=p1ulv13.1.2.3 kV=0.48 Vminpu=0.8 Vmaxpu=1.2 model=1 kW=161.47038937402243 kvar=4.789438358702725 Phases=3 !yearly=com_kw_31821_pu

New Load.load_p1ulv19_1 conn=wye bus1=p1ulv19.1 kV=0.12 Vminpu=0.8 Vmaxpu=1.2 model=1 kW=16.02798720948244 kvar=2.8437413396195175 Phases=1 !yearly=res_kw_4915_pu

New Load.load_p1ulv19_2 conn=wye bus1=p1ulv19.2 kV=0.12 Vminpu=0.8 Vmaxpu=1.2 model=1 kW=16.02798720948244 kvar=2.8437413396195175 Phases=1 !yearly=res_kw_4915_pu

New Load.load_p1ulv20_1 conn=wye bus1=p1ulv20.1 kV=0.12 Vminpu=0.8 Vmaxpu=1.2 model=1 kW=10.41654853949803 kvar=1.6032682172934418 Phases=1 !yearly=res_kw_6114_pu

New Load.load_p1ulv20_2 conn=wye bus1=p1ulv20.2 kV=0.12 Vminpu=0.8 Vmaxpu=1.2 model=1 kW=10.41654853949803 kvar=1.6032682172934418 Phases=1 !yearly=res_kw_6114_pu

New Load.load_p1ulv21_1 conn=wye bus1=p1ulv21.1 kV=0.12 Vminpu=0.8 Vmaxpu=1.2 model=1 kW=4.213467827683971 kvar=1.0947667715622962 Phases=1 !yearly=res_kw_11883_pu

New Load.load_p1ulv21_2 conn=wye bus1=p1ulv21.2 kV=0.12 Vminpu=0.8 Vmaxpu=1.2 model=1 kW=4.213467827683971 kvar=1.0947667715622962 Phases=1 !yearly=res_kw_11883_pu

New Load.load_p1ulv22_1 conn=wye bus1=p1ulv22.1 kV=0.12 Vminpu=0.8 Vmaxpu=1.2 model=1 kW=5.570337418007031 kvar=0.8118407160879036 Phases=1 !yearly=res_kw_8452_pu

New Load.load_p1ulv22_2 conn=wye bus1=p1ulv22.2 kV=0.12 Vminpu=0.8 Vmaxpu=1.2 model=1 kW=5.570337418007031 kvar=0.8118407160879036 Phases=1 !yearly=res_kw_8452_pu

New Load.load_p1ulv23_1 conn=wye bus1=p1ulv23.1 kV=0.12 Vminpu=0.8 Vmaxpu=1.2 model=1 kW=1.919115741074501 kvar=0.2850908988242494 Phases=1 !yearly=res_kw_10222_pu

New Load.load_p1ulv23_2 conn=wye bus1=p1ulv23.2 kV=0.12 Vminpu=0.8 Vmaxpu=1.2 model=1 kW=1.919115741074501 kvar=0.2850908988242494 Phases=1 !yearly=res_kw_10222_pu

New Load.load_p1ulv24_1 conn=wye bus1=p1ulv24.1 kV=0.12 Vminpu=0.8 Vmaxpu=1.2 model=1 kW=7.528478863049446 kvar=0.44147561018834486 Phases=1 !yearly=res_kw_11110_pu

New Load.load_p1ulv24_2 conn=wye bus1=p1ulv24.2 kV=0.12 Vminpu=0.8 Vmaxpu=1.2 model=1 kW=7.528478863049446 kvar=0.44147561018834486 Phases=1 !yearly=res_kw_11110_pu

New Load.load_p1ulv25_1 conn=wye bus1=p1ulv25.1 kV=0.12 Vminpu=0.8 Vmaxpu=1.2 model=1 kW=2.7405726618177377 kvar=0.26510780348327356 Phases=1 !yearly=res_kw_13715_pu

New Load.load_p1ulv25_2 conn=wye bus1=p1ulv25.2 kV=0.12 Vminpu=0.8 Vmaxpu=1.2 model=1 kW=2.7405726618177377 kvar=0.26510780348327356 Phases=1 !yearly=res_kw_13715_pu

New Load.load_p1ulv26_1 conn=wye bus1=p1ulv25.1 kV=0.12 Vminpu=0.8 Vmaxpu=1.2 model=1 kW=5.875485744114147 kvar=1.294896241985991 Phases=1 !yearly=res_kw_6117_pu

New Load.load_p1ulv26_2 conn=wye bus1=p1ulv25.2 kV=0.12 Vminpu=0.8 Vmaxpu=1.2 model=1 kW=5.875485744114147 kvar=1.294896241985991 Phases=1 !yearly=res_kw_6117_pu

New Load.load_p1ulv27_1 conn=wye bus1=p1ulv27.1 kV=0.12 Vminpu=0.8 Vmaxpu=1.2 model=1 kW=5.0358208514804765 kvar=1.829134863273152 Phases=1 !yearly=res_kw_13955_pu

New Load.load_p1ulv27_2 conn=wye bus1=p1ulv27.2 kV=0.12 Vminpu=0.8 Vmaxpu=1.2 model=1 kW=5.0358208514804765 kvar=1.829134863273152 Phases=1 !yearly=res_kw_13955_pu

New Load.load_p1ulv28_1 conn=wye bus1=p1ulv28.1 kV=0.12 Vminpu=0.8 Vmaxpu=1.2 model=1 kW=4.838525071303998 kvar=0.6392471611694661 Phases=1 !yearly=res_kw_2042_pu

New Load.load_p1ulv28_2 conn=wye bus1=p1ulv28.2 kV=0.12 Vminpu=0.8 Vmaxpu=1.2 model=1 kW=4.838525071303998 kvar=0.6392471611694661 Phases=1 !yearly=res_kw_2042_pu

New Load.load_p1ulv29_1 conn=wye bus1=p1ulv29.1 kV=0.12 Vminpu=0.8 Vmaxpu=1.2 model=1 kW=1.4409963787260254 kvar=0.41567269800484963 Phases=1 !yearly=res_kw_9964_pu

New Load.load_p1ulv29_2 conn=wye bus1=p1ulv29.2 kV=0.12 Vminpu=0.8 Vmaxpu=1.2 model=1 kW=1.4409963787260254 kvar=0.41567269800484963 Phases=1 !yearly=res_kw_9964_pu

New Load.load_p1ulv30_1 conn=wye bus1=p1ulv30.1 kV=0.12 Vminpu=0.8 Vmaxpu=1.2 model=1 kW=3.875608242018149 kvar=1.1961787734858456 Phases=1 !yearly=res_kw_10857_pu

New Load.load_p1ulv30_2 conn=wye bus1=p1ulv30.2 kV=0.12 Vminpu=0.8 Vmaxpu=1.2 model=1 kW=3.875608242018149 kvar=1.1961787734858456 Phases=1 !yearly=res_kw_10857_pu

New Load.load_p1ulv31_1 conn=wye bus1=p1ulv31.1 kV=0.12 Vminpu=0.8 Vmaxpu=1.2 model=1 kW=6.897307755446521 kvar=1.1601742353954994 Phases=1 !yearly=res_kw_6381_pu

New Load.load_p1ulv31_2 conn=wye bus1=p1ulv31.2 kV=0.12 Vminpu=0.8 Vmaxpu=1.2 model=1 kW=6.897307755446521 kvar=1.1601742353954994 Phases=1 !yearly=res_kw_6381_pu

New Load.load_p1ulv32_1 conn=wye bus1=p1ulv31.1 kV=0.12 Vminpu=0.8 Vmaxpu=1.2 model=1 kW=2.3427299479624937 kvar=0.7727008462653047 Phases=1 !yearly=res_kw_15172_pu

New Load.load_p1ulv32_2 conn=wye bus1=p1ulv31.2 kV=0.12 Vminpu=0.8 Vmaxpu=1.2 model=1 kW=2.3427299479624937 kvar=0.7727008462653047 Phases=1 !yearly=res_kw_15172_pu

New Load.load_p1ulv33_1 conn=wye bus1=p1ulv33.1 kV=0.12 Vminpu=0.8 Vmaxpu=1.2 model=1 kW=3.5406501175114133 kvar=1.216714657229654 Phases=1 !yearly=res_kw_436_pu

New Load.load_p1ulv33_2 conn=wye bus1=p1ulv33.2 kV=0.12 Vminpu=0.8 Vmaxpu=1.2 model=1 kW=3.5406501175114133 kvar=1.216714657229654 Phases=1 !yearly=res_kw_436_pu

New Load.load_p1ulv34_1 conn=wye bus1=p1ulv34.1 kV=0.12 Vminpu=0.8 Vmaxpu=1.2 model=1 kW=2.2084970230804295 kvar=0.6059929399999135 Phases=1 !yearly=com_kw_16241_pu

New Load.load_p1ulv34_2 conn=wye bus1=p1ulv34.2 kV=0.12 Vminpu=0.8 Vmaxpu=1.2 model=1 kW=2.2084970230804295 kvar=0.6059929399999135 Phases=1 !yearly=com_kw_16241_pu

New Load.load_p1ulv35_1 conn=wye bus1=p1ulv35.1 kV=0.12 Vminpu=0.8 Vmaxpu=1.2 model=1 kW=1.9091540745929014 kvar=0.5092410528673206 Phases=1 !yearly=com_kw_29637_pu

New Load.load_p1ulv35_2 conn=wye bus1=p1ulv35.2 kV=0.12 Vminpu=0.8 Vmaxpu=1.2 model=1 kW=1.9091540745929014 kvar=0.5092410528673206 Phases=1 !yearly=com_kw_29637_pu

New Load.load_p1ulv36_1 conn=wye bus1=p1ulv36.1 kV=0.12 Vminpu=0.8 Vmaxpu=1.2 model=1 kW=11.781417717027779 kvar=0.8587937162639665 Phases=1 !yearly=res_kw_2699_pu

New Load.load_p1ulv36_2 conn=wye bus1=p1ulv36.2 kV=0.12 Vminpu=0.8 Vmaxpu=1.2 model=1 kW=11.781417717027779 kvar=0.8587937162639665 Phases=1 !yearly=res_kw_2699_pu

New Load.load_p1ulv37_1 conn=wye bus1=p1ulv37.1 kV=0.12 Vminpu=0.8 Vmaxpu=1.2 model=1 kW=5.625526146095583 kvar=1.743804730727935 Phases=1 !yearly=res_kw_7757_pu

New Load.load_p1ulv37_2 conn=wye bus1=p1ulv37.2 kV=0.12 Vminpu=0.8 Vmaxpu=1.2 model=1 kW=5.625526146095583 kvar=1.743804730727935 Phases=1 !yearly=res_kw_7757_pu

New Load.load_p1ulv38_1 conn=wye bus1=p1ulv38.1 kV=0.12 Vminpu=0.8 Vmaxpu=1.2 model=1 kW=2.3059328497695484 kvar=0.7376015309426123 Phases=1 !yearly=res_kw_6744_pu

New Load.load_p1ulv38_2 conn=wye bus1=p1ulv38.2 kV=0.12 Vminpu=0.8 Vmaxpu=1.2 model=1 kW=2.3059328497695484 kvar=0.7376015309426123 Phases=1 !yearly=res_kw_6744_pu

New Load.load_p1ulv39_1 conn=wye bus1=p1ulv39.1 kV=0.12 Vminpu=0.8 Vmaxpu=1.2 model=1 kW=2.579369927520555 kvar=0.6647005569371234 Phases=1 !yearly=res_kw_6035_pu

New Load.load_p1ulv39_2 conn=wye bus1=p1ulv39.2 kV=0.12 Vminpu=0.8 Vmaxpu=1.2 model=1 kW=2.579369927520555 kvar=0.6647005569371234 Phases=1 !yearly=res_kw_6035_pu

New Load.load_p1ulv40_1 conn=wye bus1=p1ulv40.1 kV=0.12 Vminpu=0.8 Vmaxpu=1.2 model=1 kW=19.75902931045732 kvar=3.1754145012537713 Phases=1 !yearly=res_kw_6894_pu

New Load.load_p1ulv40_2 conn=wye bus1=p1ulv40.2 kV=0.12 Vminpu=0.8 Vmaxpu=1.2 model=1 kW=19.75902931045732 kvar=3.1754145012537713 Phases=1 !yearly=res_kw_6894_pu

New Load.load_p1ulv41_1 conn=wye bus1=p1ulv40.1 kV=0.12 Vminpu=0.8 Vmaxpu=1.2 model=1 kW=5.2429816697495895 kvar=0.17676682195553978 Phases=1 !yearly=res_kw_1714_pu

New Load.load_p1ulv41_2 conn=wye bus1=p1ulv40.2 kV=0.12 Vminpu=0.8 Vmaxpu=1.2 model=1 kW=5.2429816697495895 kvar=0.17676682195553978 Phases=1 !yearly=res_kw_1714_pu

New Load.load_p1ulv42_1 conn=wye bus1=p1ulv42.1 kV=0.12 Vminpu=0.8 Vmaxpu=1.2 model=1 kW=1.4663769608466568 kvar=0.5502546109327153 Phases=1 !yearly=res_kw_678_pu

New Load.load_p1ulv42_2 conn=wye bus1=p1ulv42.2 kV=0.12 Vminpu=0.8 Vmaxpu=1.2 model=1 kW=1.4663769608466568 kvar=0.5502546109327153 Phases=1 !yearly=res_kw_678_pu

New Load.load_p1ulv43_1 conn=wye bus1=p1ulv43.1 kV=0.12 Vminpu=0.8 Vmaxpu=1.2 model=1 kW=1.5692687640425318 kvar=0.559009720119794 Phases=1 !yearly=res_kw_5824_pu

New Load.load_p1ulv43_2 conn=wye bus1=p1ulv43.2 kV=0.12 Vminpu=0.8 Vmaxpu=1.2 model=1 kW=1.5692687640425318 kvar=0.559009720119794 Phases=1 !yearly=res_kw_5824_pu

New Load.load_p1ulv44_1 conn=wye bus1=p1ulv44.1 kV=0.12 Vminpu=0.8 Vmaxpu=1.2 model=1 kW=9.408960054161826 kvar=0.5320204979430293 Phases=1 !yearly=res_kw_12499_pu

New Load.load_p1ulv44_2 conn=wye bus1=p1ulv44.2 kV=0.12 Vminpu=0.8 Vmaxpu=1.2 model=1 kW=9.408960054161826 kvar=0.5320204979430293 Phases=1 !yearly=res_kw_12499_pu

New Load.load_p1ulv45_1 conn=wye bus1=p1ulv45.1 kV=0.12 Vminpu=0.8 Vmaxpu=1.2 model=1 kW=1.4663769608466568 kvar=0.5502546109327153 Phases=1 !yearly=res_kw_678_pu

New Load.load_p1ulv45_2 conn=wye bus1=p1ulv45.2 kV=0.12 Vminpu=0.8 Vmaxpu=1.2 model=1 kW=1.4663769608466568 kvar=0.5502546109327153 Phases=1 !yearly=res_kw_678_pu

New Load.load_p1ulv46_1 conn=wye bus1=p1ulv46.1 kV=0.12 Vminpu=0.8 Vmaxpu=1.2 model=1 kW=12.406447565237393 kvar=0.5336917296888387 Phases=1 !yearly=res_kw_8039_pu

New Load.load_p1ulv46_2 conn=wye bus1=p1ulv46.2 kV=0.12 Vminpu=0.8 Vmaxpu=1.2 model=1 kW=12.406447565237393 kvar=0.5336917296888387 Phases=1 !yearly=res_kw_8039_pu

New Load.load_p1ulv47_1 conn=wye bus1=p1ulv47.1 kV=0.12 Vminpu=0.8 Vmaxpu=1.2 model=1 kW=2.6336247552290706 kvar=0.8034540577596695 Phases=1 !yearly=res_kw_6751_pu

New Load.load_p1ulv47_2 conn=wye bus1=p1ulv47.2 kV=0.12 Vminpu=0.8 Vmaxpu=1.2 model=1 kW=2.6336247552290706 kvar=0.8034540577596695 Phases=1 !yearly=res_kw_6751_pu

New Load.load_p1ulv48_1 conn=wye bus1=p1ulv47.1 kV=0.12 Vminpu=0.8 Vmaxpu=1.2 model=1 kW=7.61718612390062 kvar=4.5733430724006725 Phases=1 !yearly=res_kw_8250_pu

New Load.load_p1ulv48_2 conn=wye bus1=p1ulv47.2 kV=0.12 Vminpu=0.8 Vmaxpu=1.2 model=1 kW=7.61718612390062 kvar=4.5733430724006725 Phases=1 !yearly=res_kw_8250_pu

New Load.load_p1ulv49_1 conn=wye bus1=p1ulv49.1 kV=0.12 Vminpu=0.8 Vmaxpu=1.2 model=1 kW=5.0358208514804765 kvar=1.829134863273152 Phases=1 !yearly=res_kw_13955_pu

New Load.load_p1ulv49_2 conn=wye bus1=p1ulv49.2 kV=0.12 Vminpu=0.8 Vmaxpu=1.2 model=1 kW=5.0358208514804765 kvar=1.829134863273152 Phases=1 !yearly=res_kw_13955_pu

New Load.load_p1ulv50_1 conn=wye bus1=p1ulv50.1 kV=0.12 Vminpu=0.8 Vmaxpu=1.2 model=1 kW=1.4845546712501703 kvar=0.47455106810204356 Phases=1 !yearly=res_kw_13607_pu

New Load.load_p1ulv50_2 conn=wye bus1=p1ulv50.2 kV=0.12 Vminpu=0.8 Vmaxpu=1.2 model=1 kW=1.4845546712501703 kvar=0.47455106810204356 Phases=1 !yearly=res_kw_13607_pu

New Load.load_p1ulv51_1 conn=wye bus1=p1ulv51.1 kV=0.12 Vminpu=0.8 Vmaxpu=1.2 model=1 kW=5.762461808960138 kvar=1.1832641091261547 Phases=1 !yearly=res_kw_541_pu

New Load.load_p1ulv51_2 conn=wye bus1=p1ulv51.2 kV=0.12 Vminpu=0.8 Vmaxpu=1.2 model=1 kW=5.762461808960138 kvar=1.1832641091261547 Phases=1 !yearly=res_kw_541_pu

New Load.load_p1ulv52_1 conn=wye bus1=p1ulv52.1 kV=0.12 Vminpu=0.8 Vmaxpu=1.2 model=1 kW=6.980390038243813 kvar=1.273630209379575 Phases=1 !yearly=res_kw_14502_pu

New Load.load_p1ulv52_2 conn=wye bus1=p1ulv52.2 kV=0.12 Vminpu=0.8 Vmaxpu=1.2 model=1 kW=6.980390038243813 kvar=1.273630209379575 Phases=1 !yearly=res_kw_14502_pu

New Load.load_p1ulv53_1 conn=wye bus1=p1ulv53.1 kV=0.12 Vminpu=0.8 Vmaxpu=1.2 model=1 kW=3.815987136332746 kvar=1.3265505075448794 Phases=1 !yearly=res_kw_10358_pu

New Load.load_p1ulv53_2 conn=wye bus1=p1ulv53.2 kV=0.12 Vminpu=0.8 Vmaxpu=1.2 model=1 kW=3.815987136332746 kvar=1.3265505075448794 Phases=1 !yearly=res_kw_10358_pu

New Load.load_p1ulv54_1 conn=wye bus1=p1ulv53.1 kV=0.12 Vminpu=0.8 Vmaxpu=1.2 model=1 kW=4.137589932313878 kvar=1.641063475395652 Phases=1 !yearly=res_kw_5436_pu

New Load.load_p1ulv54_2 conn=wye bus1=p1ulv53.2 kV=0.12 Vminpu=0.8 Vmaxpu=1.2 model=1 kW=4.137589932313878 kvar=1.641063475395652 Phases=1 !yearly=res_kw_5436_pu

New Load.load_p1ulv55_1 conn=wye bus1=p1ulv55.1 kV=0.12 Vminpu=0.8 Vmaxpu=1.2 model=1 kW=2.2475652192140543 kvar=0.7657308903998252 Phases=1 !yearly=res_kw_2597_pu

New Load.load_p1ulv55_2 conn=wye bus1=p1ulv55.2 kV=0.12 Vminpu=0.8 Vmaxpu=1.2 model=1 kW=2.2475652192140543 kvar=0.7657308903998252 Phases=1 !yearly=res_kw_2597_pu

New Load.load_p1ulv56_1 conn=wye bus1=p1ulv56.1 kV=0.12 Vminpu=0.8 Vmaxpu=1.2 model=1 kW=1.3536101419755677 kvar=0.47889015207054514 Phases=1 !yearly=res_kw_9636_pu

New Load.load_p1ulv56_2 conn=wye bus1=p1ulv56.2 kV=0.12 Vminpu=0.8 Vmaxpu=1.2 model=1 kW=1.3536101419755677 kvar=0.47889015207054514 Phases=1 !yearly=res_kw_9636_pu

New Load.load_p1ulv57_1 conn=wye bus1=p1ulv57.1 kV=0.12 Vminpu=0.8 Vmaxpu=1.2 model=1 kW=4.137589932313878 kvar=1.641063475395652 Phases=1 !yearly=res_kw_5436_pu

New Load.load_p1ulv57_2 conn=wye bus1=p1ulv57.2 kV=0.12 Vminpu=0.8 Vmaxpu=1.2 model=1 kW=4.137589932313878 kvar=1.641063475395652 Phases=1 !yearly=res_kw_5436_pu

New Load.load_p1ulv58_1 conn=wye bus1=p1ulv49.1 kV=0.12 Vminpu=0.8 Vmaxpu=1.2 model=1 kW=2.1603354468169496 kvar=0.7593773040340845 Phases=1 !yearly=res_kw_14158_pu

New Load.load_p1ulv58_2 conn=wye bus1=p1ulv49.2 kV=0.12 Vminpu=0.8 Vmaxpu=1.2 model=1 kW=2.1603354468169496 kvar=0.7593773040340845 Phases=1 !yearly=res_kw_14158_pu

New Load.load_p1ulv59_1 conn=wye bus1=p1ulv59.1 kV=0.12 Vminpu=0.8 Vmaxpu=1.2 model=1 kW=5.588204973238404 kvar=2.321993105941222 Phases=1 !yearly=res_kw_5484_pu

New Load.load_p1ulv59_2 conn=wye bus1=p1ulv59.2 kV=0.12 Vminpu=0.8 Vmaxpu=1.2 model=1 kW=5.588204973238404 kvar=2.321993105941222 Phases=1 !yearly=res_kw_5484_pu

New Load.load_p1ulv60_1 conn=wye bus1=p1ulv60.1 kV=0.12 Vminpu=0.8 Vmaxpu=1.2 model=1 kW=4.060834559711965 kvar=0.4528637167980347 Phases=1 !yearly=res_kw_2131_pu

New Load.load_p1ulv60_2 conn=wye bus1=p1ulv60.2 kV=0.12 Vminpu=0.8 Vmaxpu=1.2 model=1 kW=4.060834559711965 kvar=0.4528637167980347 Phases=1 !yearly=res_kw_2131_pu

New Load.load_p1ulv61_1 conn=wye bus1=p1ulv60.1 kV=0.12 Vminpu=0.8 Vmaxpu=1.2 model=1 kW=5.0358208514804765 kvar=1.829134863273152 Phases=1 !yearly=res_kw_13955_pu

New Load.load_p1ulv61_2 conn=wye bus1=p1ulv60.2 kV=0.12 Vminpu=0.8 Vmaxpu=1.2 model=1 kW=5.0358208514804765 kvar=1.829134863273152 Phases=1 !yearly=res_kw_13955_pu

New Load.load_p1ulv62_1 conn=wye bus1=p1ulv62.1 kV=0.12 Vminpu=0.8 Vmaxpu=1.2 model=1 kW=3.3507878061932015 kvar=0.7494732301678915 Phases=1 !yearly=res_kw_5264_pu

New Load.load_p1ulv62_2 conn=wye bus1=p1ulv62.2 kV=0.12 Vminpu=0.8 Vmaxpu=1.2 model=1 kW=3.3507878061932015 kvar=0.7494732301678915 Phases=1 !yearly=res_kw_5264_pu

New Load.load_p1ulv63_1 conn=wye bus1=p1ulv63.1 kV=0.12 Vminpu=0.8 Vmaxpu=1.2 model=1 kW=1.9115470716545817 kvar=0.7511996531223851 Phases=1 !yearly=res_kw_5094_pu

New Load.load_p1ulv63_2 conn=wye bus1=p1ulv63.2 kV=0.12 Vminpu=0.8 Vmaxpu=1.2 model=1 kW=1.9115470716545817 kvar=0.7511996531223851 Phases=1 !yearly=res_kw_5094_pu

New Load.load_p1ulv64_1 conn=wye bus1=p1ulv64.1 kV=0.12 Vminpu=0.8 Vmaxpu=1.2 model=1 kW=4.447136510535435 kvar=1.9299021613821727 Phases=1 !yearly=res_kw_1483_pu

New Load.load_p1ulv64_2 conn=wye bus1=p1ulv64.2 kV=0.12 Vminpu=0.8 Vmaxpu=1.2 model=1 kW=4.447136510535435 kvar=1.9299021613821727 Phases=1 !yearly=res_kw_1483_pu

New Load.load_p1ulv65_1 conn=wye bus1=p1ulv65.1 kV=0.12 Vminpu=0.8 Vmaxpu=1.2 model=1 kW=1.2440101223346245 kvar=0.10648703060010346 Phases=1 !yearly=res_kw_3843_pu

New Load.load_p1ulv65_2 conn=wye bus1=p1ulv65.2 kV=0.12 Vminpu=0.8 Vmaxpu=1.2 model=1 kW=1.2440101223346245 kvar=0.10648703060010346 Phases=1 !yearly=res_kw_3843_pu

New Load.load_p1ulv66_1 conn=wye bus1=p1ulv66.1 kV=0.12 Vminpu=0.8 Vmaxpu=1.2 model=1 kW=3.2926352778956662 kvar=1.3553361300550886 Phases=1 !yearly=res_kw_1797_pu

New Load.load_p1ulv66_2 conn=wye bus1=p1ulv66.2 kV=0.12 Vminpu=0.8 Vmaxpu=1.2 model=1 kW=3.2926352778956662 kvar=1.3553361300550886 Phases=1 !yearly=res_kw_1797_pu

New Load.load_p1ulv67_1 conn=wye bus1=p1ulv67.1 kV=0.12 Vminpu=0.8 Vmaxpu=1.2 model=1 kW=8.327080357562105 kvar=0.8869273803925216 Phases=1 !yearly=res_kw_5344_pu

New Load.load_p1ulv67_2 conn=wye bus1=p1ulv67.2 kV=0.12 Vminpu=0.8 Vmaxpu=1.2 model=1 kW=8.327080357562105 kvar=0.8869273803925216 Phases=1 !yearly=res_kw_5344_pu

New Load.load_p1ulv68_1 conn=wye bus1=p1ulv68.1 kV=0.12 Vminpu=0.8 Vmaxpu=1.2 model=1 kW=2.298373512871933 kvar=0.08780226018253445 Phases=1 !yearly=res_kw_12305_pu

New Load.load_p1ulv68_2 conn=wye bus1=p1ulv68.2 kV=0.12 Vminpu=0.8 Vmaxpu=1.2 model=1 kW=2.298373512871933 kvar=0.08780226018253445 Phases=1 !yearly=res_kw_12305_pu

New Load.load_p1ulv69_1 conn=wye bus1=p1ulv69.1 kV=0.12 Vminpu=0.8 Vmaxpu=1.2 model=1 kW=1.2598643398099032 kvar=0.42286149869491685 Phases=1 !yearly=res_kw_4627_pu

New Load.load_p1ulv69_2 conn=wye bus1=p1ulv69.2 kV=0.12 Vminpu=0.8 Vmaxpu=1.2 model=1 kW=1.2598643398099032 kvar=0.42286149869491685 Phases=1 !yearly=res_kw_4627_pu

New Load.load_p1ulv75_1 conn=wye bus1=p1ulv75.1 kV=0.12 Vminpu=0.8 Vmaxpu=1.2 model=1 kW=11.651809392632849 kvar=4.766759151751063 Phases=1 !yearly=res_kw_9693_pu

New Load.load_p1ulv75_2 conn=wye bus1=p1ulv75.2 kV=0.12 Vminpu=0.8 Vmaxpu=1.2 model=1 kW=11.651809392632849 kvar=4.766759151751063 Phases=1 !yearly=res_kw_9693_pu

New Load.load_p1ulv76_1 conn=wye bus1=p1ulv76.1 kV=0.12 Vminpu=0.8 Vmaxpu=1.2 model=1 kW=17.353907421581127 kvar=2.987553021087091 Phases=1 !yearly=res_kw_992_pu

New Load.load_p1ulv76_2 conn=wye bus1=p1ulv76.2 kV=0.12 Vminpu=0.8 Vmaxpu=1.2 model=1 kW=17.353907421581127 kvar=2.987553021087091 Phases=1 !yearly=res_kw_992_pu

New Load.load_p1ulv77_1 conn=wye bus1=p1ulv77.1 kV=0.12 Vminpu=0.8 Vmaxpu=1.2 model=1 kW=2.4926492618897855 kvar=0.9041271816014727 Phases=1 !yearly=res_kw_349_pu

New Load.load_p1ulv77_2 conn=wye bus1=p1ulv77.2 kV=0.12 Vminpu=0.8 Vmaxpu=1.2 model=1 kW=2.4926492618897855 kvar=0.9041271816014727 Phases=1 !yearly=res_kw_349_pu

New Load.load_p1ulv78_1 conn=wye bus1=p1ulv78.1 kV=0.12 Vminpu=0.8 Vmaxpu=1.2 model=1 kW=3.3679504550627355 kvar=1.8883614301826692 Phases=1 !yearly=res_kw_14062_pu

New Load.load_p1ulv78_2 conn=wye bus1=p1ulv78.2 kV=0.12 Vminpu=0.8 Vmaxpu=1.2 model=1 kW=3.3679504550627355 kvar=1.8883614301826692 Phases=1 !yearly=res_kw_14062_pu

New Load.load_p1ulv79_1 conn=wye bus1=p1ulv79.1 kV=0.12 Vminpu=0.8 Vmaxpu=1.2 model=1 kW=5.254480886061526 kvar=0.902961111007677 Phases=1 !yearly=res_kw_10657_pu

New Load.load_p1ulv79_2 conn=wye bus1=p1ulv79.2 kV=0.12 Vminpu=0.8 Vmaxpu=1.2 model=1 kW=5.254480886061526 kvar=0.902961111007677 Phases=1 !yearly=res_kw_10657_pu

New Load.load_p1ulv80_1 conn=wye bus1=p1ulv80.1 kV=0.12 Vminpu=0.8 Vmaxpu=1.2 model=1 kW=2.3834256683973267 kvar=0.9702928129566425 Phases=1 !yearly=res_kw_8118_pu

New Load.load_p1ulv80_2 conn=wye bus1=p1ulv80.2 kV=0.12 Vminpu=0.8 Vmaxpu=1.2 model=1 kW=2.3834256683973267 kvar=0.9702928129566425 Phases=1 !yearly=res_kw_8118_pu

New Load.load_p1ulv81_1 conn=wye bus1=p1ulv81.1 kV=0.12 Vminpu=0.8 Vmaxpu=1.2 model=1 kW=3.479466060646973 kvar=1.2524800032658996 Phases=1 !yearly=res_kw_7173_pu

New Load.load_p1ulv81_2 conn=wye bus1=p1ulv81.2 kV=0.12 Vminpu=0.8 Vmaxpu=1.2 model=1 kW=3.479466060646973 kvar=1.2524800032658996 Phases=1 !yearly=res_kw_7173_pu

New Load.load_p1ulv82_1 conn=wye bus1=p1ulv82.1 kV=0.12 Vminpu=0.8 Vmaxpu=1.2 model=1 kW=5.2547905931434515 kvar=0.9341595961534626 Phases=1 !yearly=res_kw_4729_pu

New Load.load_p1ulv82_2 conn=wye bus1=p1ulv82.2 kV=0.12 Vminpu=0.8 Vmaxpu=1.2 model=1 kW=5.2547905931434515 kvar=0.9341595961534626 Phases=1 !yearly=res_kw_4729_pu

New Load.load_p1ulv83_1 conn=wye bus1=p1ulv83.1 kV=0.12 Vminpu=0.8 Vmaxpu=1.2 model=1 kW=1.6295328634326751 kvar=0.9988748196040309 Phases=1 !yearly=res_kw_5167_pu

New Load.load_p1ulv83_2 conn=wye bus1=p1ulv83.2 kV=0.12 Vminpu=0.8 Vmaxpu=1.2 model=1 kW=1.6295328634326751 kvar=0.9988748196040309 Phases=1 !yearly=res_kw_5167_pu

New Load.load_p1ulv84_1 conn=wye bus1=p1ulv83.1 kV=0.12 Vminpu=0.8 Vmaxpu=1.2 model=1 kW=6.1843791774686485 kvar=0.39509133250899364 Phases=1 !yearly=res_kw_3458_pu

New Load.load_p1ulv84_2 conn=wye bus1=p1ulv83.2 kV=0.12 Vminpu=0.8 Vmaxpu=1.2 model=1 kW=6.1843791774686485 kvar=0.39509133250899364 Phases=1 !yearly=res_kw_3458_pu

New Load.load_p1ulv85_1 conn=wye bus1=p1ulv85.1 kV=0.12 Vminpu=0.8 Vmaxpu=1.2 model=1 kW=3.1749939505716873 kvar=2.1214379935074974 Phases=1 !yearly=res_kw_6037_pu

New Load.load_p1ulv85_2 conn=wye bus1=p1ulv85.2 kV=0.12 Vminpu=0.8 Vmaxpu=1.2 model=1 kW=3.1749939505716873 kvar=2.1214379935074974 Phases=1 !yearly=res_kw_6037_pu

New Load.load_p1ulv86_1 conn=wye bus1=p1ulv86.1 kV=0.12 Vminpu=0.8 Vmaxpu=1.2 model=1 kW=1.6235247805381197 kvar=0.5206515777483778 Phases=1 !yearly=res_kw_3440_pu

New Load.load_p1ulv86_2 conn=wye bus1=p1ulv86.2 kV=0.12 Vminpu=0.8 Vmaxpu=1.2 model=1 kW=1.6235247805381197 kvar=0.5206515777483778 Phases=1 !yearly=res_kw_3440_pu

New Load.load_p1ulv87_1 conn=wye bus1=p1ulv87.1 kV=0.12 Vminpu=0.8 Vmaxpu=1.2 model=1 kW=4.801547271450001 kvar=1.343089412503384 Phases=1 !yearly=res_kw_2976_pu

New Load.load_p1ulv87_2 conn=wye bus1=p1ulv87.2 kV=0.12 Vminpu=0.8 Vmaxpu=1.2 model=1 kW=4.801547271450001 kvar=1.343089412503384 Phases=1 !yearly=res_kw_2976_pu

New Load.load_p1ulv88_1 conn=wye bus1=p1ulv88.1 kV=0.12 Vminpu=0.8 Vmaxpu=1.2 model=1 kW=8.707310272785897 kvar=1.2386435303868175 Phases=1 !yearly=res_kw_7646_pu

New Load.load_p1ulv88_2 conn=wye bus1=p1ulv88.2 kV=0.12 Vminpu=0.8 Vmaxpu=1.2 model=1 kW=8.707310272785897 kvar=1.2386435303868175 Phases=1 !yearly=res_kw_7646_pu

New Load.load_p1ulv89_1 conn=wye bus1=p1ulv89.1 kV=0.12 Vminpu=0.8 Vmaxpu=1.2 model=1 kW=1.8239221488875907 kvar=0.842092183643817 Phases=1 !yearly=res_kw_11680_pu

New Load.load_p1ulv89_2 conn=wye bus1=p1ulv89.2 kV=0.12 Vminpu=0.8 Vmaxpu=1.2 model=1 kW=1.8239221488875907 kvar=0.842092183643817 Phases=1 !yearly=res_kw_11680_pu

New Load.load_p1ulv90_1 conn=wye bus1=p1ulv90.1 kV=0.12 Vminpu=0.8 Vmaxpu=1.2 model=1 kW=15.39837386842743 kvar=3.0372561388757715 Phases=1 !yearly=res_kw_13933_pu

New Load.load_p1ulv90_2 conn=wye bus1=p1ulv90.2 kV=0.12 Vminpu=0.8 Vmaxpu=1.2 model=1 kW=15.39837386842743 kvar=3.0372561388757715 Phases=1 !yearly=res_kw_13933_pu

New Load.load_p1ulv91_1 conn=wye bus1=p1ulv91.1 kV=0.12 Vminpu=0.8 Vmaxpu=1.2 model=1 kW=1.6295328634326751 kvar=0.9988748196040309 Phases=1 !yearly=res_kw_5167_pu

New Load.load_p1ulv91_2 conn=wye bus1=p1ulv91.2 kV=0.12 Vminpu=0.8 Vmaxpu=1.2 model=1 kW=1.6295328634326751 kvar=0.9988748196040309 Phases=1 !yearly=res_kw_5167_pu

New Load.load_p1ulv92_1 conn=wye bus1=p1ulv91.1 kV=0.12 Vminpu=0.8 Vmaxpu=1.2 model=1 kW=4.213467827683971 kvar=1.0947667715622962 Phases=1 !yearly=res_kw_11883_pu

New Load.load_p1ulv92_2 conn=wye bus1=p1ulv91.2 kV=0.12 Vminpu=0.8 Vmaxpu=1.2 model=1 kW=4.213467827683971 kvar=1.0947667715622962 Phases=1 !yearly=res_kw_11883_pu

New Load.load_p1ulv93_1 conn=wye bus1=p1ulv93.1 kV=0.12 Vminpu=0.8 Vmaxpu=1.2 model=1 kW=8.426866332805865 kvar=0.4093625346888915 Phases=1 !yearly=res_kw_4139_pu

New Load.load_p1ulv93_2 conn=wye bus1=p1ulv93.2 kV=0.12 Vminpu=0.8 Vmaxpu=1.2 model=1 kW=8.426866332805865 kvar=0.4093625346888915 Phases=1 !yearly=res_kw_4139_pu

New Load.load_p1ulv94_1 conn=wye bus1=p1ulv94.1 kV=0.12 Vminpu=0.8 Vmaxpu=1.2 model=1 kW=2.0767431255860616 kvar=0.16976979075065665 Phases=1 !yearly=res_kw_1633_pu

New Load.load_p1ulv94_2 conn=wye bus1=p1ulv94.2 kV=0.12 Vminpu=0.8 Vmaxpu=1.2 model=1 kW=2.0767431255860616 kvar=0.16976979075065665 Phases=1 !yearly=res_kw_1633_pu

New Load.load_p1ulv95_1 conn=wye bus1=p1ulv94.1 kV=0.12 Vminpu=0.8 Vmaxpu=1.2 model=1 kW=2.4128863281707464 kvar=0.8155672145776587 Phases=1 !yearly=res_kw_11436_pu

New Load.load_p1ulv95_2 conn=wye bus1=p1ulv94.2 kV=0.12 Vminpu=0.8 Vmaxpu=1.2 model=1 kW=2.4128863281707464 kvar=0.8155672145776587 Phases=1 !yearly=res_kw_11436_pu

New Load.load_p1ulv96_1 conn=wye bus1=p1ulv96.1 kV=0.12 Vminpu=0.8 Vmaxpu=1.2 model=1 kW=1.6756304436316105 kvar=0.651752290570944 Phases=1 !yearly=res_kw_14757_pu

New Load.load_p1ulv96_2 conn=wye bus1=p1ulv96.2 kV=0.12 Vminpu=0.8 Vmaxpu=1.2 model=1 kW=1.6756304436316105 kvar=0.651752290570944 Phases=1 !yearly=res_kw_14757_pu

New Load.load_p1ulv97_1 conn=wye bus1=p1ulv97.1 kV=0.12 Vminpu=0.8 Vmaxpu=1.2 model=1 kW=5.483743105439325 kvar=1.2856850046588346 Phases=1 !yearly=res_kw_12434_pu

New Load.load_p1ulv97_2 conn=wye bus1=p1ulv97.2 kV=0.12 Vminpu=0.8 Vmaxpu=1.2 model=1 kW=5.483743105439325 kvar=1.2856850046588346 Phases=1 !yearly=res_kw_12434_pu

New Load.load_p1ulv98_1 conn=wye bus1=p1ulv98.1 kV=0.12 Vminpu=0.8 Vmaxpu=1.2 model=1 kW=5.357735583624587 kvar=1.823563105843836 Phases=1 !yearly=res_kw_547_pu

New Load.load_p1ulv98_2 conn=wye bus1=p1ulv98.2 kV=0.12 Vminpu=0.8 Vmaxpu=1.2 model=1 kW=5.357735583624587 kvar=1.823563105843836 Phases=1 !yearly=res_kw_547_pu

New Load.load_p1ulv99_1 conn=wye bus1=p1ulv99.1 kV=0.12 Vminpu=0.8 Vmaxpu=1.2 model=1 kW=11.398625920883045 kvar=2.0314072165474117 Phases=1 !yearly=res_kw_8516_pu

New Load.load_p1ulv99_2 conn=wye bus1=p1ulv99.2 kV=0.12 Vminpu=0.8 Vmaxpu=1.2 model=1 kW=11.398625920883045 kvar=2.0314072165474117 Phases=1 !yearly=res_kw_8516_pu

New Load.load_p1ulv100_1 conn=wye bus1=p1ulv100.1 kV=0.12 Vminpu=0.8 Vmaxpu=1.2 model=1 kW=2.1976836424562762 kvar=0.1051220183522544 Phases=1 !yearly=com_kw_17157_pu

New Load.load_p1ulv100_2 conn=wye bus1=p1ulv100.2 kV=0.12 Vminpu=0.8 Vmaxpu=1.2 model=1 kW=2.1976836424562762 kvar=0.1051220183522544 Phases=1 !yearly=com_kw_17157_pu

New Load.load_p1ulv101_1 conn=wye bus1=p1ulv101.1 kV=0.12 Vminpu=0.8 Vmaxpu=1.2 model=1 kW=1.5539156587657554 kvar=0.6092612784831468 Phases=1 !yearly=res_kw_2844_pu

New Load.load_p1ulv101_2 conn=wye bus1=p1ulv101.2 kV=0.12 Vminpu=0.8 Vmaxpu=1.2 model=1 kW=1.5539156587657554 kvar=0.6092612784831468 Phases=1 !yearly=res_kw_2844_pu

New Load.load_p1ulv102_1 conn=wye bus1=p1ulv101.1 kV=0.12 Vminpu=0.8 Vmaxpu=1.2 model=1 kW=1.284200487232147 kvar=0.41448582451476484 Phases=1 !yearly=res_kw_5741_pu

New Load.load_p1ulv102_2 conn=wye bus1=p1ulv101.2 kV=0.12 Vminpu=0.8 Vmaxpu=1.2 model=1 kW=1.284200487232147 kvar=0.41448582451476484 Phases=1 !yearly=res_kw_5741_pu

New Load.load_p1ulv103_1 conn=wye bus1=p1ulv103.1 kV=0.12 Vminpu=0.8 Vmaxpu=1.2 model=1 kW=1.695624773682175 kvar=0.6122293390256299 Phases=1 !yearly=res_kw_10894_pu

New Load.load_p1ulv103_2 conn=wye bus1=p1ulv103.2 kV=0.12 Vminpu=0.8 Vmaxpu=1.2 model=1 kW=1.695624773682175 kvar=0.6122293390256299 Phases=1 !yearly=res_kw_10894_pu

New Load.load_p1ulv104_1 conn=wye bus1=p1ulv104.1 kV=0.12 Vminpu=0.8 Vmaxpu=1.2 model=1 kW=2.298373512871933 kvar=0.08780226018253445 Phases=1 !yearly=res_kw_12305_pu

New Load.load_p1ulv104_2 conn=wye bus1=p1ulv104.2 kV=0.12 Vminpu=0.8 Vmaxpu=1.2 model=1 kW=2.298373512871933 kvar=0.08780226018253445 Phases=1 !yearly=res_kw_12305_pu

New Load.load_p1ulv105_1 conn=wye bus1=p1ulv105.1 kV=0.12 Vminpu=0.8 Vmaxpu=1.2 model=1 kW=14.22409550523734 kvar=0.8889682771022025 Phases=1 !yearly=res_kw_7313_pu

New Load.load_p1ulv105_2 conn=wye bus1=p1ulv105.2 kV=0.12 Vminpu=0.8 Vmaxpu=1.2 model=1 kW=14.22409550523734 kvar=0.8889682771022025 Phases=1 !yearly=res_kw_7313_pu

New Load.load_p1ulv106_1 conn=wye bus1=p1ulv106.1 kV=0.12 Vminpu=0.8 Vmaxpu=1.2 model=1 kW=3.906753032631516 kvar=1.2043399116853255 Phases=1 !yearly=res_kw_6111_pu

New Load.load_p1ulv106_2 conn=wye bus1=p1ulv106.2 kV=0.12 Vminpu=0.8 Vmaxpu=1.2 model=1 kW=3.906753032631516 kvar=1.2043399116853255 Phases=1 !yearly=res_kw_6111_pu

New Load.load_p1ulv107_1 conn=wye bus1=p1ulv107.1 kV=0.12 Vminpu=0.8 Vmaxpu=1.2 model=1 kW=7.238471467274803 kvar=1.0196002541918134 Phases=1 !yearly=res_kw_9235_pu

New Load.load_p1ulv107_2 conn=wye bus1=p1ulv107.2 kV=0.12 Vminpu=0.8 Vmaxpu=1.2 model=1 kW=7.238471467274803 kvar=1.0196002541918134 Phases=1 !yearly=res_kw_9235_pu

New Load.load_p1ulv108_1 conn=wye bus1=p1ulv100.1 kV=0.12 Vminpu=0.8 Vmaxpu=1.2 model=1 kW=2.4820522770729507 kvar=0.1125677048872814 Phases=1 !yearly=com_kw_21144_pu

New Load.load_p1ulv108_2 conn=wye bus1=p1ulv100.2 kV=0.12 Vminpu=0.8 Vmaxpu=1.2 model=1 kW=2.4820522770729507 kvar=0.1125677048872814 Phases=1 !yearly=com_kw_21144_pu

New Load.load_p1ulv109_1 conn=wye bus1=p1ulv109.1 kV=0.12 Vminpu=0.8 Vmaxpu=1.2 model=1 kW=2.365256087534968 kvar=0.9406994095530364 Phases=1 !yearly=res_kw_7227_pu

New Load.load_p1ulv109_2 conn=wye bus1=p1ulv109.2 kV=0.12 Vminpu=0.8 Vmaxpu=1.2 model=1 kW=2.365256087534968 kvar=0.9406994095530364 Phases=1 !yearly=res_kw_7227_pu

New Load.load_p1ulv110_1 conn=wye bus1=p1ulv110.1 kV=0.12 Vminpu=0.8 Vmaxpu=1.2 model=1 kW=1.1522187211102024 kvar=0.1254646123654986 Phases=1 !yearly=com_kw_33747_pu
