New Line.l(r:p1udt1813lv-p1ulv8542) Units=km Length=0.0373918 bus1=p1udt1813lv.1.2 bus2=p1ulv8542.1.2 switch=n enabled=y phases=2 Linecode=1P_UG_AL_1/0_Brenau_2

New Line.l(r:p1udt1814lv-p1ulv8543) Units=km Length=0.0869727 bus1=p1udt1814lv.1.2 bus2=p1ulv8543.1.2 switch=n enabled=y phases=2 Linecode=1P_UG_AL_1/0_Brenau_2

New Line.l(r:p1udt1815lv-p1ulv8544) Units=km Length=0.0457842 bus1=p1udt1815lv.1.2 bus2=p1ulv8544.1.2 switch=n enabled=y phases=2 Linecode=1P_OH_AL_4/0_Zuzara_2

New Line.l(r:p1udt1817lv-p1ulv8546) Units=km Length=0.0342921 bus1=p1udt1817lv.1.2 bus2=p1ulv8546.1.2 switch=n enabled=y phases=2 Linecode=1P_OH_AL_4/0_Zuzara_2

New Line.l(r:p1udt1818lv-p1ulv8547) Units=km Length=0.0223146 bus1=p1udt1818lv.1.2 bus2=p1ulv8547.1.2 switch=n enabled=y phases=2 Linecode=1P_UG_AL_2/0_Converse_2

New Line.l(r:p1udt1820lv-p1ulv8551) Units=km Length=0.0130851 bus1=p1udt1820lv.1.2 bus2=p1ulv8551.1.2 switch=n enabled=y phases=2 Linecode=1P_UG_AL_1/0_Brenau_2

New Line.l(r:p1udm7553-p1ulv8552) Units=km Length=0.0164061 bus1=p1udm7553.1.2 bus2=p1ulv8552.1.2 switch=n enabled=y phases=2 Linecode=1P_UG_AL_1/0_Brenau_2

New Line.l(r:p1udm7553-p1udt1820lv) Units=km Length=0.009866640000000001 bus1=p1udt1820lv.1.2 bus2=p1udm7553.1.2 switch=n enabled=y phases=2 Linecode=1P_UG_AL_1/0_Brenau_2

New Line.l(r:p1udm7555-p1ulv8554) Units=km Length=0.0150235 bus1=p1udm7555.1.2 bus2=p1ulv8554.1.2 switch=n enabled=y phases=2 Linecode=1P_UG_AL_1/0_Brenau_2

New Line.l(r:p1udm7555-p1ulv8556) Units=km Length=0.0188218 bus1=p1udm7555.1.2 bus2=p1ulv8556.1.2 switch=n enabled=y phases=2 Linecode=1P_UG_AL_4/0_Sweetbriar_2

New Line.l(r:p1udm7555-p1udt1822lv) Units=km Length=0.009876200000000002 bus1=p1udt1822lv.1.2 bus2=p1udm7555.1.2 switch=n enabled=y phases=2 Linecode=1P_UG_AL_4/0_Sweetbriar_2

New Line.l(r:p1udm7557-p1ulv8558) Units=km Length=0.0193912 bus1=p1udm7557.1.2 bus2=p1ulv8558.1.2 switch=n enabled=y phases=2 Linecode=1P_UG_AL_1/0_Brenau_2

New Line.l(r:p1udm7557-p1udt1822lv) Units=km Length=0.0295999 bus1=p1udt1822lv.1.2 bus2=p1udm7557.1.2 switch=n enabled=y phases=2 Linecode=1P_UG_AL_1/0_Brenau_2

New Line.l(r:p1udt1823lv-p1ulv8557) Units=km Length=0.0377325 bus1=p1udt1823lv.1.2 bus2=p1ulv8557.1.2 switch=n enabled=y phases=2 Linecode=1P_UG_AL_2/0_Converse_2

New Line.l(r:p1udt1824-p1uhs3_1247) Units=km Length=0.225222 bus1=p1udt1824-p1uhs3_1247x.1.2.3 bus2=p1udt1824.1.2.3 switch=n enabled=y phases=3 Linecode=3P_UG_AL_3

New Line.l(r:p1udt1814-p1udt1818) Units=km Length=0.06519550000000002 bus1=p1udt1814-p1udt1818x.1.2.3 bus2=p1udt1814-p1udt1818xx.1.2.3 switch=n enabled=y phases=3 Linecode=3P_UG_AL_3

New Line.l(r:p1udt1268-p1udt1814) Units=km Length=0.11366200000000001 bus1=p1udt1268-p1udt1814x.1.2.3 bus2=p1udt1268-p1udt1814xx.1.2.3 switch=n enabled=y phases=3 Linecode=3P_UG_AL_3

New Line.l(r:p1udt1268-p1udt1798) Units=km Length=0.1535 bus1=p1udt1268-p1udt1798xx.1.2.3 bus2=p1udt1268-p1udt1798x.1.2.3 switch=n enabled=y phases=3 Linecode=3P_UG_AL_3

New Line.l(r:p1udt1798-p1udt1820) Units=km Length=0.0197399 bus1=p1udt1798-p1udt1820xx.1.2.3 bus2=p1udt1798-p1udt1820x.1.2.3 switch=n enabled=y phases=3 Linecode=3P_UG_AL_3

New Line.l(r:p1udt1820-p1udt1822) Units=km Length=0.0493398 bus1=p1udt1820-p1udt1822xx.1.2.3 bus2=p1udt1820-p1udt1822x.1.2.3 switch=n enabled=y phases=3 Linecode=3P_UG_AL_3

New Line.l(r:p1udt1801-p1udt1822) Units=km Length=0.009866640000000001 bus1=p1udt1801-p1udt1822x.1.2.3 bus2=p1udt1801-p1udt1822xx.1.2.3 switch=n enabled=y phases=3 Linecode=3P_UG_AL_3

New Line.l(r:p1udt1676-p1udt1801) Units=km Length=0.0789397 bus1=p1udt1676-p1udt1801x.1.2.3 bus2=p1udt1676-p1udt1801xx.1.2.3 switch=n enabled=y phases=3 Linecode=3P_UG_AL_3

New Line.l(r:p1udt1676-p1udt1824) Units=km Length=0.157886 bus1=p1udt1676-p1udt1824xx.1.2.3 bus2=p1udt1676-p1udt1824x.1.2.3 switch=n enabled=y phases=3 Linecode=3P_UG_AL_3

New Line.l(r:p1udt1674-p1udt1675) Units=km Length=0.13540000000000002 bus1=p1udt1674-p1udt1675x.1.2.3 bus2=p1udt1674-p1udt1675xx.1.2.3 switch=n enabled=y phases=3 Linecode=3P_UG_AL_3

New Line.l(r:p1udt1674-p1umv22) Units=km Length=0.0585602 bus1=p1udt1674-p1umv22xx.1.2.3 bus2=p1udt1674-p1umv22x.1.2.3 switch=n enabled=y phases=3 Linecode=3P_UG_AL_3

New Line.l(r:p1udt1807-p1umv22) Units=km Length=0.17599300000000004 bus1=p1udt1807-p1umv22x.1.2.3 bus2=p1udt1807-p1umv22xx.1.2.3 switch=n enabled=y phases=3 Linecode=3P_UG_AL_3

New Line.l(r:p1udt1807-p1udt1824) Units=km Length=0.20181700000000002 bus1=p1udt1807-p1udt1824xx.1.2.3 bus2=p1udt1807-p1udt1824x.1.2.3 switch=n enabled=y phases=3 Linecode=3P_UG_AL_3

New Line.l(r:p1udt1824lv-p1ulv8559) Units=km Length=0.019854600000000003 bus1=p1udt1824lv.1.2.3 bus2=p1ulv8559.1.2.3 switch=n enabled=y phases=3 Linecode=3P_UG_AL_350kcmil_3_2

New Line.l(r:p1udm7351-p1ulv8216) Units=km Length=0.0134488 bus1=p1udm7351.1.2.3 bus2=p1ulv8216.1.2.3 switch=n enabled=y phases=3 Linecode=3P_UG_AL_350kcmil_3_2

New Line.l(r:p1udm7351-p1udt1676lv) Units=km Length=0.0197333 bus1=p1udt1676lv.1.2.3 bus2=p1udm7351.1.2.3 switch=n enabled=y phases=3 Linecode=3P_UG_AL_350kcmil_3_2

New Line.l(r:p1udm7352-p1ulv8217) Units=km Length=0.013788600000000002 bus1=p1udm7352.1.2.3 bus2=p1ulv8217.1.2.3 switch=n enabled=y phases=3 Linecode=3P_UG_AL_350kcmil_3_2

New Line.l(r:p1udm7352-p1udt1676lv) Units=km Length=0.0197304 bus1=p1udt1676lv.1.2.3 bus2=p1udm7352.1.2.3 switch=n enabled=y phases=3 Linecode=3P_UG_AL_350kcmil_3_2

New Line.l(r:p1udt1801lv-p1ulv8521) Units=km Length=0.012530200000000002 bus1=p1udt1801lv.1.2.3 bus2=p1ulv8521.1.2.3 switch=n enabled=y phases=3 Linecode=3P_UG_AL_350kcmil_3_2

New Line.l(r:p1udm7520-p1ulv8518) Units=km Length=0.0128778 bus1=p1udm7520.1.2.3 bus2=p1ulv8518.1.2.3 switch=n enabled=y phases=3 Linecode=3P_UG_AL_350kcmil_3_2

New Line.l(r:p1udm7520-p1udt1798lv) Units=km Length=0.009866640000000001 bus1=p1udt1798lv.1.2.3 bus2=p1udm7520.1.2.3 switch=n enabled=y phases=3 Linecode=3P_UG_AL_350kcmil_3_2

New Line.l(r:p1udm7521-p1ulv8550) Units=km Length=0.0121117 bus1=p1udm7521.1.2.3 bus2=p1ulv8550.1.2.3 switch=n enabled=y phases=3 Linecode=3P_UG_AL_350kcmil_3_2

New Line.l(r:p1udm7521-p1udt1798lv) Units=km Length=0.00986373 bus1=p1udt1798lv.1.2.3 bus2=p1udm7521.1.2.3 switch=n enabled=y phases=3 Linecode=3P_UG_AL_350kcmil_3_2

New Line.l(r:p1udt1268lv-p1ulv6232) Units=km Length=0.0246991 bus1=p1udt1268lv.1.2.3 bus2=p1ulv6232.1.2.3 switch=n enabled=y phases=3 Linecode=3P_UG_AL_350kcmil_3_2

New Line.l(r:p1udt1799lv-p1ulv8519) Units=km Length=0.0201804 bus1=p1udt1799lv.1.2.3 bus2=p1ulv8519.1.2.3 switch=n enabled=y phases=3 Linecode=3P_UG_AL_350kcmil_3_2

New Line.l(r:p1udt1821lv-p1ulv8553) Units=km Length=0.0268126 bus1=p1udt1821lv.1.2.3 bus2=p1ulv8553.1.2.3 switch=n enabled=y phases=3 Linecode=3P_UG_AL_350kcmil_3_2

New Line.l(r:p1udt1799-p1udt1821) Units=km Length=0.029564400000000005 bus1=p1udt1799-p1udt1821x.1.2.3 bus2=p1udt1799-p1udt1821xx.1.2.3 switch=n enabled=y phases=3 Linecode=3P_UG_AL_3

New Line.l(r:p1udt1268-p1udt1799) Units=km Length=0.123972 bus1=p1udt1268-p1udt1799x.1.2.3 bus2=p1udt1268-p1udt1799xx.1.2.3 switch=n enabled=y phases=3 Linecode=3P_UG_AL_3

New Line.l(r:p1udt1267lv-p1ulv6231) Units=km Length=0.0192476 bus1=p1udt1267lv.1.2.3 bus2=p1ulv6231.1.2.3 switch=n enabled=y phases=3 Linecode=3P_UG_AL_350kcmil_3_2

New Line.l(r:p1udm7526-p1ulv8523) Units=km Length=0.0182305 bus1=p1udm7526.1.2.3 bus2=p1ulv8523.1.2.3 switch=n enabled=y phases=3 Linecode=3P_UG_AL_350kcmil_3_2

New Line.l(r:p1udm7526-p1udt1803lv) Units=km Length=0.0491783 bus1=p1udt1803lv.1.2.3 bus2=p1udm7526.1.2.3 switch=n enabled=y phases=3 Linecode=3P_UG_AL_350kcmil_3_2

New Line.l(r:p1udm7527-p1ulv8555) Units=km Length=0.0197111 bus1=p1udm7527.1.2.3 bus2=p1ulv8555.1.2.3 switch=n enabled=y phases=3 Linecode=3P_UG_AL_350kcmil_3_2

New Line.l(r:p1udm7527-p1udt1803lv) Units=km Length=0.0491688 bus1=p1udt1803lv.1.2.3 bus2=p1udm7527.1.2.3 switch=n enabled=y phases=3 Linecode=3P_UG_AL_350kcmil_3_2

New Line.l(r:p1udt1803-p1udt1823) Units=km Length=0.0294974 bus1=p1udt1803-p1udt1823xx.1.2.3 bus2=p1udt1803-p1udt1823x.1.2.3 switch=n enabled=y phases=3 Linecode=3P_UG_AL_3

New Line.l(r:p1udt1267-p1udt1823) Units=km Length=0.0393459 bus1=p1udt1267-p1udt1823x.1.2.3 bus2=p1udt1267-p1udt1823xx.1.2.3 switch=n enabled=y phases=3 Linecode=3P_UG_AL_3

New Line.l(r:p1udt1267-p1udt1818) Units=km Length=0.076095 bus1=p1udt1267-p1udt1818xx.1.2.3 bus2=p1udt1267-p1udt1818x.1.2.3 switch=n enabled=y phases=3 Linecode=3P_UG_AL_3

New Line.l(r:p1udt1269lv-p1ulv6233) Units=km Length=0.0182276 bus1=p1udt1269lv.1.2.3 bus2=p1ulv6233.1.2.3 switch=n enabled=y phases=3 Linecode=3P_UG_AL_350kcmil_3_2

New Line.l(r:p1udt1816lv-p1ulv8545) Units=km Length=0.04042540000000001 bus1=p1udt1816lv.1.2.3 bus2=p1ulv8545.1.2.3 switch=n enabled=y phases=3 Linecode=3P_UG_AL_350kcmil_3_2

New Line.l(r:p1udt1797lv-p1ulv8517) Units=km Length=0.0139254 bus1=p1udt1797lv.1.2.3 bus2=p1ulv8517.1.2.3 switch=n enabled=y phases=3 Linecode=3P_UG_AL_350kcmil_3_2

New Line.l(r:p1udt1797-p1udt1816) Units=km Length=0.119468 bus1=p1udt1797-p1udt1816xx.1.2.3 bus2=p1udt1797-p1udt1816x.1.2.3 switch=n enabled=y phases=3 Linecode=3P_UG_AL_3

New Line.l(r:p1udt1813-p1udt1816) Units=km Length=0.0298683 bus1=p1udt1813-p1udt1816x.1.2.3 bus2=p1udt1813-p1udt1816xx.1.2.3 switch=n enabled=y phases=3 Linecode=3P_UG_AL_3

New Line.l(r:p1udt1269-p1udt1813) Units=km Length=0.0497789 bus1=p1udt1269-p1udt1813x.1.2.3 bus2=p1udt1269-p1udt1813xx.1.2.3 switch=n enabled=y phases=3 Linecode=3P_UG_AL_3

New Line.l(r:p1udt1269-p1udt1818) Units=km Length=0.203373 bus1=p1udt1269-p1udt1818xx.1.2.3 bus2=p1udt1269-p1udt1818x.1.2.3 switch=n enabled=y phases=3 Linecode=3P_UG_AL_3

New Line.l(r:p1udt1800lv-p1ulv8520) Units=km Length=0.0541149 bus1=p1udt1800lv.1.2.3 bus2=p1ulv8520.1.2.3 switch=n enabled=y phases=3 Linecode=3P_UG_AL_350kcmil_3_2

New Line.l(r:p1udt1812lv-p1ulv8541) Units=km Length=0.0159718 bus1=p1udt1812lv.1.2.3 bus2=p1ulv8541.1.2.3 switch=n enabled=y phases=3 Linecode=3P_UG_AL_350kcmil_3_2

New Line.l(r:p1udt1812-p1udt1815) Units=km Length=0.0812742 bus1=p1udt1815.1.2.3 bus2=p1udt1812.1.2.3 switch=n enabled=y phases=3 Linecode=3P_OH_AL_ACSR_4/0_Penguin_3

New Line.l(r:p1udt1815-p1udt1817) Units=km Length=0.0691219 bus1=p1udt1817.1.2.3 bus2=p1udt1815.1.2.3 switch=n enabled=y phases=3 Linecode=3P_OH_AL_ACSR_4/0_Penguin_3

New Line.l(r:p1udt1800-p1udt1817) Units=km Length=0.244451 bus1=p1udt1800-p1udt1817x.1.2.3 bus2=p1udt1817.1.2.3 switch=n enabled=y phases=3 Linecode=3P_OH_AL_ACSR_4/0_Penguin_3

New Line.l(r:p1udt1800-p1udt1818) Units=km Length=0.22489900000000002 bus1=p1udt1818.1.2.3 bus2=p1udt1800.1.2.3 switch=n enabled=y phases=3 Linecode=3P_OH_AL_ACSR_4/0_Penguin_3

New Line.l(r:p1udt1807-p1umv21) Units=km Length=0.21591100000000002 bus1=p1udt1807-p1umv21x.1.2.3 bus2=p1udt1807-p1umv21xx.1.2.3 switch=n enabled=y phases=3 Linecode=3P_UG_AL_3

New Line.l(r:p1udm7347-p1ulv8214) Units=km Length=0.0233446 bus1=p1udm7347.1.2.3 bus2=p1ulv8214.1.2.3 switch=n enabled=y phases=3 Linecode=3P_UG_AL_350kcmil_3_2

New Line.l(r:p1udm7347-p1udt1674lv) Units=km Length=0.00985335 bus1=p1udt1674lv.1.2.3 bus2=p1udm7347.1.2.3 switch=n enabled=y phases=3 Linecode=3P_UG_AL_350kcmil_3_2

New Line.l(r:p1udm7348-p1ulv8528) Units=km Length=0.016229700000000003 bus1=p1udm7348.1.2.3 bus2=p1ulv8528.1.2.3 switch=n enabled=y phases=3 Linecode=3P_UG_AL_350kcmil_3_2

New Line.l(r:p1udm7348-p1udt1674lv) Units=km Length=0.04339950000000001 bus1=p1udt1674lv.1.2.3 bus2=p1udm7348.1.2.3 switch=n enabled=y phases=3 Linecode=3P_UG_AL_350kcmil_3_2

New Line.l(r:p1udm7349-p1ulv8215) Units=km Length=0.02773 bus1=p1udm7349.1.2.3 bus2=p1ulv8215.1.2.3 switch=n enabled=y phases=3 Linecode=3P_UG_AL_350kcmil_3_2

New Line.l(r:p1udm7349-p1udt1675lv) Units=km Length=0.0373816 bus1=p1udt1675lv.1.2.3 bus2=p1udm7349.1.2.3 switch=n enabled=y phases=3 Linecode=3P_UG_AL_350kcmil_3_2

New Line.l(r:p1udm7350-p1ulv8527) Units=km Length=0.0123035 bus1=p1udm7350.1.2.3 bus2=p1ulv8527.1.2.3 switch=n enabled=y phases=3 Linecode=3P_UG_AL_350kcmil_3_2

New Line.l(r:p1udm7350-p1udt1675lv) Units=km Length=0.0373912 bus1=p1udt1675lv.1.2.3 bus2=p1udm7350.1.2.3 switch=n enabled=y phases=3 Linecode=3P_UG_AL_350kcmil_3_2

New Line.l(r:p1udt1806lv-p1ulv8526) Units=km Length=0.0126755 bus1=p1udt1806lv.1.2.3 bus2=p1ulv8526.1.2.3 switch=n enabled=y phases=3 Linecode=3P_UG_AL_350kcmil_3_2

New Line.l(r:p1udt1804lv-p1ulv8524) Units=km Length=0.0116217 bus1=p1udt1804lv.1.2.3 bus2=p1ulv8524.1.2.3 switch=n enabled=y phases=3 Linecode=3P_UG_AL_350kcmil_3_2

New Line.l(r:p1udt1802lv-p1ulv8522) Units=km Length=0.0106882 bus1=p1udt1802lv.1.2.3 bus2=p1ulv8522.1.2.3 switch=n enabled=y phases=3 Linecode=3P_UG_AL_350kcmil_3_2

New Line.l(r:p1udt1802-p1udt1804) Units=km Length=0.0796397 bus1=p1udt1802-p1udt1804xx.1.2.3 bus2=p1udt1802-p1udt1804x.1.2.3 switch=n enabled=y phases=3 Linecode=3P_UG_AL_3

New Line.l(r:p1udt1804-p1udt1806) Units=km Length=0.119889 bus1=p1udt1804-p1udt1806xx.1.2.3 bus2=p1udt1804-p1udt1806x.1.2.3 switch=n enabled=y phases=3 Linecode=3P_UG_AL_3

New Line.l(r:p1udt1675-p1udt1806) Units=km Length=0.103468 bus1=p1udt1675-p1udt1806x.1.2.3 bus2=p1udt1675-p1udt1806xx.1.2.3 switch=n enabled=y phases=3 Linecode=3P_UG_AL_3

New Line.l(r:p1udt1805lv-p1ulv8525) Units=km Length=0.0173775 bus1=p1udt1805lv.1.2.3 bus2=p1ulv8525.1.2.3 switch=n enabled=y phases=3 Linecode=3P_UG_AL_350kcmil_3_2

New Line.l(r:p1udt1805-p1umv22) Units=km Length=0.152847 bus1=p1udt1805-p1umv22xx.1.2.3 bus2=p1udt1805-p1umv22x.1.2.3 switch=n enabled=y phases=3 Linecode=3P_UG_AL_3

New Line.l(r:p1udt1808lv-p1ulv8530) Units=km Length=0.0241382 bus1=p1udt1808lv.1.2.3 bus2=p1ulv8530.1.2.3 switch=n enabled=y phases=3 Linecode=3P_UG_AL_350kcmil_3_2

New Line.l(r:p1udt1808-p1umv22) Units=km Length=0.161129 bus1=p1udt1808-p1umv22xx.1.2.3 bus2=p1udt1808-p1umv22x.1.2.3 switch=n enabled=y phases=3 Linecode=3P_UG_AL_3

New Line.l(r:p1udt1810-p1udt1812) Units=km Length=0.122931 bus1=p1udt1810-p1udt1812x.1.2.3 bus2=p1udt1810.1.2.3 switch=n enabled=y phases=3 Linecode=3P_OH_AL_ACSR_1033kcmil_Curlew_3

New Line.l(r:p1udt1807lv-p1ulv8529)p1ud1 Units=km Length=0.0227492 bus1=p1udt1807lv.1.2.3 bus2=p1ulv8529.1.2.3 switch=n enabled=y phases=3 Linecode=3P_UG_AL_750kcmil_3_1

New Line.padswitch(r:p1udt1814-p1udt1818)p1u_11836 Units=km Length=0.001 bus1=p1udt1814.1.2.3 bus2=p1udt1814-p1udt1818x.1.2.3 switch=y enabled=y phases=3 Linecode=padswitch_3

New Line.padswitch(r:p1udt1814-p1udt1818)p1u_11837 Units=km Length=0.001 bus1=p1udt1814-p1udt1818xx.1.2.3 bus2=p1udt1818.1.2.3 switch=y enabled=y phases=3 Linecode=padswitch_3_3

New Line.padswitch(r:p1udt1268-p1udt1814)p1u_11838 Units=km Length=0.001 bus1=p1udt1268.1.2.3 bus2=p1udt1268-p1udt1814x.1.2.3 switch=y enabled=y phases=3 Linecode=padswitch_3_9

New Line.padswitch(r:p1udt1268-p1udt1814)p1u_11839 Units=km Length=0.001 bus1=p1udt1268-p1udt1814xx.1.2.3 bus2=p1udt1814.1.2.3 switch=y enabled=y phases=3 Linecode=padswitch_3

New Line.padswitch(r:p1udt1268-p1udt1798)p1u_11840 Units=km Length=0.001 bus1=p1udt1798.1.2.3 bus2=p1udt1268-p1udt1798xx.1.2.3 switch=y enabled=y phases=3 Linecode=padswitch_3_9

New Line.padswitch(r:p1udt1268-p1udt1798)p1u_11841 Units=km Length=0.001 bus1=p1udt1268-p1udt1798x.1.2.3 bus2=p1udt1268.1.2.3 switch=y enabled=y phases=3 Linecode=padswitch_3_9

New Line.padswitch(r:p1udt1798-p1udt1820)p1u_11842 Units=km Length=0.001 bus1=p1udt1820.1.2.3 bus2=p1udt1798-p1udt1820xx.1.2.3 switch=y enabled=y phases=3 Linecode=padswitch_3

New Line.padswitch(r:p1udt1798-p1udt1820)p1u_11843 Units=km Length=0.001 bus1=p1udt1798-p1udt1820x.1.2.3 bus2=p1udt1798.1.2.3 switch=y enabled=y phases=3 Linecode=padswitch_3_9

New Line.padswitch(r:p1udt1820-p1udt1822)p1u_11844 Units=km Length=0.001 bus1=p1udt1822.1.2.3 bus2=p1udt1820-p1udt1822xx.1.2.3 switch=y enabled=y phases=3 Linecode=padswitch_3_9

New Line.padswitch(r:p1udt1820-p1udt1822)p1u_11845 Units=km Length=0.001 bus1=p1udt1820-p1udt1822x.1.2.3 bus2=p1udt1820.1.2.3 switch=y enabled=y phases=3 Linecode=padswitch_3

New Line.padswitch(r:p1udt1801-p1udt1822)p1u_11846 Units=km Length=0.001 bus1=p1udt1801.1.2.3 bus2=p1udt1801-p1udt1822x.1.2.3 switch=y enabled=y phases=3 Linecode=padswitch_3

New Line.padswitch(r:p1udt1801-p1udt1822)p1u_11847 Units=km Length=0.001 bus1=p1udt1801-p1udt1822xx.1.2.3 bus2=p1udt1822.1.2.3 switch=y enabled=y phases=3 Linecode=padswitch_3_9

New Line.padswitch(r:p1udt1676-p1udt1801)p1u_11848 Units=km Length=0.001 bus1=p1udt1676.1.2.3 bus2=p1udt1676-p1udt1801x.1.2.3 switch=y enabled=y phases=3 Linecode=padswitch_3

New Line.padswitch(r:p1udt1676-p1udt1801)p1u_11849 Units=km Length=0.001 bus1=p1udt1676-p1udt1801xx.1.2.3 bus2=p1udt1801.1.2.3 switch=y enabled=y phases=3 Linecode=padswitch_3

New Line.padswitch(r:p1udt1676-p1udt1824)p1u_11850 Units=km Length=0.001 bus1=p1udt1824.1.2.3 bus2=p1udt1676-p1udt1824xx.1.2.3 switch=y enabled=y phases=3 Linecode=padswitch_3

New Line.padswitch(r:p1udt1676-p1udt1824)p1u_11851 Units=km Length=0.001 bus1=p1udt1676-p1udt1824x.1.2.3 bus2=p1udt1676.1.2.3 switch=y enabled=y phases=3 Linecode=padswitch_3

New Line.padswitch(r:p1udt1674-p1udt1675)p1u_11860 Units=km Length=0.001 bus1=p1udt1674.1.2.3 bus2=p1udt1674-p1udt1675x.1.2.3 switch=y enabled=y phases=3 Linecode=padswitch_3

New Line.padswitch(r:p1udt1674-p1udt1675)p1u_11861 Units=km Length=0.001 bus1=p1udt1674-p1udt1675xx.1.2.3 bus2=p1udt1675.1.2.3 switch=y enabled=y phases=3 Linecode=padswitch_3_2

New Line.padswitch(r:p1udt1674-p1umv22)p1u_11862 Units=km Length=0.001 bus1=p1umv22.1.2.3 bus2=p1udt1674-p1umv22xx.1.2.3 switch=y enabled=y phases=3 Linecode=padswitch_3_2

New Line.padswitch(r:p1udt1674-p1umv22)p1u_11863 Units=km Length=0.001 bus1=p1udt1674-p1umv22x.1.2.3 bus2=p1udt1674.1.2.3 switch=y enabled=y phases=3 Linecode=padswitch_3_2

New Line.padswitch(r:p1udt1807-p1umv22)p1u_11868 Units=km Length=0.001 bus1=p1udt1807.1.2.3 bus2=p1udt1807-p1umv22x.1.2.3 switch=y enabled=y phases=3 Linecode=padswitch_3

New Line.padswitch(r:p1udt1807-p1umv22)p1u_11869 Units=km Length=0.001 bus1=p1udt1807-p1umv22xx.1.2.3 bus2=p1umv22.1.2.3 switch=y enabled=y phases=3 Linecode=padswitch_3_2

New Line.padswitch(r:p1udt1807-p1udt1824)p1u_11870 Units=km Length=0.001 bus1=p1udt1824.1.2.3 bus2=p1udt1807-p1udt1824xx.1.2.3 switch=y enabled=y phases=3 Linecode=padswitch_3

New Line.padswitch(r:p1udt1807-p1udt1824)p1u_11871 Units=km Length=0.001 bus1=p1udt1807-p1udt1824x.1.2.3 bus2=p1udt1807.1.2.3 switch=y enabled=y phases=3 Linecode=padswitch_3

New Line.padswitch(r:p1udt1799-p1udt1821)p1u_11818 Units=km Length=0.001 bus1=p1udt1799.1.2.3 bus2=p1udt1799-p1udt1821x.1.2.3 switch=y enabled=y phases=3 Linecode=padswitch_3

New Line.padswitch(r:p1udt1799-p1udt1821)p1u_11819 Units=km Length=0.001 bus1=p1udt1799-p1udt1821xx.1.2.3 bus2=p1udt1821.1.2.3 switch=y enabled=y phases=3 Linecode=padswitch_3_2

New Line.padswitch(r:p1udt1268-p1udt1799)p1u_11820 Units=km Length=0.001 bus1=p1udt1268.1.2.3 bus2=p1udt1268-p1udt1799x.1.2.3 switch=y enabled=y phases=3 Linecode=padswitch_3_9

New Line.padswitch(r:p1udt1268-p1udt1799)p1u_11821 Units=km Length=0.001 bus1=p1udt1268-p1udt1799xx.1.2.3 bus2=p1udt1799.1.2.3 switch=y enabled=y phases=3 Linecode=padswitch_3

New Line.padswitch(r:p1udt1803-p1udt1823)p1u_11822 Units=km Length=0.001 bus1=p1udt1823.1.2.3 bus2=p1udt1803-p1udt1823xx.1.2.3 switch=y enabled=y phases=3 Linecode=padswitch_3_2

New Line.padswitch(r:p1udt1803-p1udt1823)p1u_11823 Units=km Length=0.001 bus1=p1udt1803-p1udt1823x.1.2.3 bus2=p1udt1803.1.2.3 switch=y enabled=y phases=3 Linecode=padswitch_3_2

New Line.padswitch(r:p1udt1267-p1udt1823)p1u_11824 Units=km Length=0.001 bus1=p1udt1267.1.2.3 bus2=p1udt1267-p1udt1823x.1.2.3 switch=y enabled=y phases=3 Linecode=padswitch_3

New Line.padswitch(r:p1udt1267-p1udt1823)p1u_11825 Units=km Length=0.001 bus1=p1udt1267-p1udt1823xx.1.2.3 bus2=p1udt1823.1.2.3 switch=y enabled=y phases=3 Linecode=padswitch_3_2

New Line.padswitch(r:p1udt1267-p1udt1818)p1u_11826 Units=km Length=0.001 bus1=p1udt1818.1.2.3 bus2=p1udt1267-p1udt1818xx.1.2.3 switch=y enabled=y phases=3 Linecode=padswitch_3_3

New Line.padswitch(r:p1udt1267-p1udt1818)p1u_11827 Units=km Length=0.001 bus1=p1udt1267-p1udt1818x.1.2.3 bus2=p1udt1267.1.2.3 switch=y enabled=y phases=3 Linecode=padswitch_3

New Line.padswitch(r:p1udt1797-p1udt1816)p1u_11828 Units=km Length=0.001 bus1=p1udt1816.1.2.3 bus2=p1udt1797-p1udt1816xx.1.2.3 switch=y enabled=y phases=3 Linecode=padswitch_3

New Line.padswitch(r:p1udt1797-p1udt1816)p1u_11829 Units=km Length=0.001 bus1=p1udt1797-p1udt1816x.1.2.3 bus2=p1udt1797.1.2.3 switch=y enabled=y phases=3 Linecode=padswitch_3

New Line.padswitch(r:p1udt1813-p1udt1816)p1u_11830 Units=km Length=0.001 bus1=p1udt1813.1.2.3 bus2=p1udt1813-p1udt1816x.1.2.3 switch=y enabled=y phases=3 Linecode=padswitch_3

New Line.padswitch(r:p1udt1813-p1udt1816)p1u_11831 Units=km Length=0.001 bus1=p1udt1813-p1udt1816xx.1.2.3 bus2=p1udt1816.1.2.3 switch=y enabled=y phases=3 Linecode=padswitch_3

New Line.padswitch(r:p1udt1269-p1udt1813)p1u_11832 Units=km Length=0.001 bus1=p1udt1269.1.2.3 bus2=p1udt1269-p1udt1813x.1.2.3 switch=y enabled=y phases=3 Linecode=padswitch_3_9

New Line.padswitch(r:p1udt1269-p1udt1813)p1u_11833 Units=km Length=0.001 bus1=p1udt1269-p1udt1813xx.1.2.3 bus2=p1udt1813.1.2.3 switch=y enabled=y phases=3 Linecode=padswitch_3

New Line.padswitch(r:p1udt1269-p1udt1818)p1u_11834 Units=km Length=0.001 bus1=p1udt1818.1.2.3 bus2=p1udt1269-p1udt1818xx.1.2.3 switch=y enabled=y phases=3 Linecode=padswitch_3_3

New Line.padswitch(r:p1udt1269-p1udt1818)p1u_11835 Units=km Length=0.001 bus1=p1udt1269-p1udt1818x.1.2.3 bus2=p1udt1269.1.2.3 switch=y enabled=y phases=3 Linecode=padswitch_3_9

New Line.padswitch(r:p1udt1807-p1umv21)p1u_11852 Units=km Length=0.001 bus1=p1udt1807.1.2.3 bus2=p1udt1807-p1umv21x.1.2.3 switch=y enabled=y phases=3 Linecode=padswitch_3

New Line.padswitch(r:p1udt1807-p1umv21)p1u_11853 Units=km Length=0.001 bus1=p1udt1807-p1umv21xx.1.2.3 bus2=p1umv21.1.2.3 switch=y enabled=y phases=3 Linecode=padswitch_3

New Line.padswitch(r:p1udt1802-p1udt1804)p1u_11854 Units=km Length=0.001 bus1=p1udt1804.1.2.3 bus2=p1udt1802-p1udt1804xx.1.2.3 switch=y enabled=y phases=3 Linecode=padswitch_3

New Line.padswitch(r:p1udt1802-p1udt1804)p1u_11855 Units=km Length=0.001 bus1=p1udt1802-p1udt1804x.1.2.3 bus2=p1udt1802.1.2.3 switch=y enabled=y phases=3 Linecode=padswitch_3_15

New Line.padswitch(r:p1udt1804-p1udt1806)p1u_11856 Units=km Length=0.001 bus1=p1udt1806.1.2.3 bus2=p1udt1804-p1udt1806xx.1.2.3 switch=y enabled=y phases=3 Linecode=padswitch_3

New Line.padswitch(r:p1udt1804-p1udt1806)p1u_11857 Units=km Length=0.001 bus1=p1udt1804-p1udt1806x.1.2.3 bus2=p1udt1804.1.2.3 switch=y enabled=y phases=3 Linecode=padswitch_3

New Line.padswitch(r:p1udt1675-p1udt1806)p1u_11858 Units=km Length=0.001 bus1=p1udt1675.1.2.3 bus2=p1udt1675-p1udt1806x.1.2.3 switch=y enabled=y phases=3 Linecode=padswitch_3_2

New Line.padswitch(r:p1udt1675-p1udt1806)p1u_11859 Units=km Length=0.001 bus1=p1udt1675-p1udt1806xx.1.2.3 bus2=p1udt1806.1.2.3 switch=y enabled=y phases=3 Linecode=padswitch_3

New Line.padswitch(r:p1udt1805-p1umv22)p1u_11864 Units=km Length=0.001 bus1=p1umv22.1.2.3 bus2=p1udt1805-p1umv22xx.1.2.3 switch=y enabled=y phases=3 Linecode=padswitch_3_2

New Line.padswitch(r:p1udt1805-p1umv22)p1u_11865 Units=km Length=0.001 bus1=p1udt1805-p1umv22x.1.2.3 bus2=p1udt1805.1.2.3 switch=y enabled=y phases=3 Linecode=padswitch_3_2

New Line.padswitch(r:p1udt1808-p1umv22)p1u_11866 Units=km Length=0.001 bus1=p1umv22.1.2.3 bus2=p1udt1808-p1umv22xx.1.2.3 switch=y enabled=y phases=3 Linecode=padswitch_3_2

New Line.padswitch(r:p1udt1808-p1umv22)p1u_11867 Units=km Length=0.001 bus1=p1udt1808-p1umv22x.1.2.3 bus2=p1udt1808.1.2.3 switch=y enabled=y phases=3 Linecode=padswitch_3_2

New Line.elbswitch(r:p1udt1810-p1udt1812)p1u_11900 Units=km Length=0.001 bus1=p1udt1812.1.2.3 bus2=p1udt1810-p1udt1812x.1.2.3 switch=y enabled=n phases=3 Linecode=elbswitch_3_1

New Line.goab_disswitch(r:p1udt1800-p1udt1817)p1u_12296 Units=km Length=0.001 bus1=p1udt1800.1.2.3 bus2=p1udt1800-p1udt1817x.1.2.3 switch=y enabled=y phases=3 Linecode=goab_disswitch_3_7

