New Line.l(r:p1udt8lv-p1ulv9) Units=km Length=0.023220100000000004 bus1=p1udt8lv.1.2 bus2=p1ulv9.1.2 switch=n enabled=y phases=2 Linecode=1P_UG_AL_1/0_Brenau_2

New Line.l(r:p1udm38-p1ulv10) Units=km Length=0.009466780000000001 bus1=p1udm38.1.2 bus2=p1ulv10.1.2 switch=n enabled=y phases=2 Linecode=1P_OH_AL_2/0_Rucina_2

New Line.l(r:p1udm38-p1udt9lv) Units=km Length=0.0380375 bus1=p1udt9lv.1.2 bus2=p1udm38.1.2 switch=n enabled=y phases=2 Linecode=1P_OH_AL_4/0_Zuzara_2

New Line.l(r:p1udm39-p1ulv1604) Units=km Length=0.0114317 bus1=p1udm39.1.2 bus2=p1ulv1604.1.2 switch=n enabled=y phases=2 Linecode=1P_OH_AL_2/0_Rucina_2

New Line.l(r:p1udm39-p1udt9lv) Units=km Length=0.0213774 bus1=p1udt9lv.1.2 bus2=p1udm39.1.2 switch=n enabled=y phases=2 Linecode=1P_OH_AL_2/0_Rucina_2

New Line.l(r:p1udt78lv-p1ulv174) Units=km Length=0.0102751 bus1=p1udt78lv.1.2 bus2=p1ulv174.1.2 switch=n enabled=y phases=2 Linecode=1P_UG_AL_4/0_Sweetbriar_2

New Line.l(r:p1udm299-p1ulv326) Units=km Length=0.013712 bus1=p1udm299.1.2 bus2=p1ulv326.1.2 switch=n enabled=y phases=2 Linecode=1P_UG_AL_1/0_Brenau_2

New Line.l(r:p1udm299-p1udt78lv) Units=km Length=0.018916900000000004 bus1=p1udt78lv.1.2 bus2=p1udm299.1.2 switch=n enabled=y phases=2 Linecode=1P_UG_AL_1/0_Brenau_2

New Line.l(r:p1udm300-p1ulv1607) Units=km Length=0.009297280000000002 bus1=p1udm300.1.2 bus2=p1ulv1607.1.2 switch=n enabled=y phases=2 Linecode=1P_UG_AL_4/0_Sweetbriar_2

New Line.l(r:p1udm300-p1udt78lv) Units=km Length=0.018607200000000004 bus1=p1udt78lv.1.2 bus2=p1udm300.1.2 switch=n enabled=y phases=2 Linecode=1P_UG_AL_4/0_Sweetbriar_2

New Line.l(r:p1udt79lv-p1ulv175) Units=km Length=0.0142348 bus1=p1udt79lv.1.2 bus2=p1ulv175.1.2 switch=n enabled=y phases=2 Linecode=1P_UG_AL_1/0_Brenau_2

New Line.l(r:p1udm304-p1ulv650) Units=km Length=0.0108203 bus1=p1udm304.1.2 bus2=p1ulv650.1.2 switch=n enabled=y phases=2 Linecode=1P_UG_AL_1/0_Brenau_2

New Line.l(r:p1udm304-p1udt79lv) Units=km Length=0.058524 bus1=p1udt79lv.1.2 bus2=p1udm304.1.2 switch=n enabled=y phases=2 Linecode=1P_UG_AL_1/0_Brenau_2

New Line.l(r:p1udm305-p1ulv654) Units=km Length=0.0124344 bus1=p1udm305.1.2 bus2=p1ulv654.1.2 switch=n enabled=y phases=2 Linecode=1P_UG_AL_2/0_Converse_2

New Line.l(r:p1udm302-p1ulv330) Units=km Length=0.0157232 bus1=p1udm302.1.2 bus2=p1ulv330.1.2 switch=n enabled=y phases=2 Linecode=1P_UG_AL_2/0_Converse_2

New Line.l(r:p1udm302-p1ulv382) Units=km Length=0.0110103 bus1=p1udm302.1.2 bus2=p1ulv382.1.2 switch=n enabled=y phases=2 Linecode=1P_UG_AL_4/0_Sweetbriar_2

New Line.l(r:p1udm302-p1udm305) Units=km Length=0.009463030000000002 bus1=p1udm305.1.2 bus2=p1udm302.1.2 switch=n enabled=y phases=2 Linecode=1P_UG_AL_4/0_Sweetbriar_2

New Line.l(r:p1udm305-p1udt79lv) Units=km Length=0.00945391 bus1=p1udt79lv.1.2 bus2=p1udm305.1.2 switch=n enabled=y phases=2 Linecode=1P_UG_AL_4/0_Sweetbriar_2

New Line.l(r:p1udt109lv-p1ulv559) Units=km Length=0.00745582 bus1=p1udt109lv.1.2 bus2=p1ulv559.1.2 switch=n enabled=y phases=2 Linecode=1P_OH_AL_2/0_Rucina_2

New Line.l(r:p1udm436-p1ulv286) Units=km Length=0.00728501 bus1=p1udm436.1.2 bus2=p1ulv286.1.2 switch=n enabled=y phases=2 Linecode=1P_OH_AL_2/0_Rucina_2

New Line.l(r:p1udm436-p1udt109lv) Units=km Length=0.0187554 bus1=p1udt109lv.1.2 bus2=p1udm436.1.2 switch=n enabled=y phases=2 Linecode=1P_OH_AL_2/0_Rucina_2

New Line.l(r:p1udm437-p1ulv307) Units=km Length=0.00871929 bus1=p1udm437.1.2 bus2=p1ulv307.1.2 switch=n enabled=y phases=2 Linecode=1P_OH_AL_2/0_Rucina_2

New Line.l(r:p1udm437-p1udt109lv) Units=km Length=0.0187556 bus1=p1udt109lv.1.2 bus2=p1udm437.1.2 switch=n enabled=y phases=2 Linecode=1P_OH_AL_2/0_Rucina_2

New Line.l(r:p1udm445-p1ulv292) Units=km Length=0.011628500000000002 bus1=p1udm445.1.2 bus2=p1ulv292.1.2 switch=n enabled=y phases=2 Linecode=1P_OH_AL_2/0_Rucina_2

New Line.l(r:p1udm445-p1udt113lv) Units=km Length=0.0242264 bus1=p1udt113lv.1.2 bus2=p1udm445.1.2 switch=n enabled=y phases=2 Linecode=1P_OH_AL_2/0_Rucina_2

New Line.l(r:p1udm446-p1ulv383) Units=km Length=0.00924793 bus1=p1udm446.1.2 bus2=p1ulv383.1.2 switch=n enabled=y phases=2 Linecode=1P_OH_AL_2/0_Rucina_2

New Line.l(r:p1udm446-p1udt113lv) Units=km Length=0.014343600000000001 bus1=p1udt113lv.1.2 bus2=p1udm446.1.2 switch=n enabled=y phases=2 Linecode=1P_OH_AL_2/0_Rucina_2

New Line.l(r:p1udt118lv-p1ulv299) Units=km Length=0.00804459 bus1=p1udt118lv.1.2 bus2=p1ulv299.1.2 switch=n enabled=y phases=2 Linecode=1P_OH_AL_2/0_Rucina_2

New Line.l(r:p1udm452-p1ulv298) Units=km Length=0.00855015 bus1=p1udm452.1.2 bus2=p1ulv298.1.2 switch=n enabled=y phases=2 Linecode=1P_OH_AL_2/0_Rucina_2

New Line.l(r:p1udm452-p1udt118lv) Units=km Length=0.0149491 bus1=p1udt118lv.1.2 bus2=p1udm452.1.2 switch=n enabled=y phases=2 Linecode=1P_OH_AL_2/0_Rucina_2

New Line.l(r:p1udt119lv-p1ulv301) Units=km Length=0.010740000000000001 bus1=p1udt119lv.1.2 bus2=p1ulv301.1.2 switch=n enabled=y phases=2 Linecode=1P_UG_AL_4/0_Sweetbriar_2

New Line.l(r:p1udm454-p1ulv300) Units=km Length=0.010999 bus1=p1udm454.1.2 bus2=p1ulv300.1.2 switch=n enabled=y phases=2 Linecode=1P_UG_AL_1/0_Brenau_2

New Line.l(r:p1udm454-p1udt119lv) Units=km Length=0.0095154 bus1=p1udt119lv.1.2 bus2=p1udm454.1.2 switch=n enabled=y phases=2 Linecode=1P_UG_AL_1/0_Brenau_2

New Line.l(r:p1udt120lv-p1ulv302) Units=km Length=0.0107242 bus1=p1udt120lv.1.2 bus2=p1ulv302.1.2 switch=n enabled=y phases=2 Linecode=1P_UG_AL_2/0_Converse_2

New Line.l(r:p1udt120lv-p1ulv318) Units=km Length=0.0130314 bus1=p1udt120lv.1.2 bus2=p1ulv318.1.2 switch=n enabled=y phases=2 Linecode=1P_UG_AL_4/0_Sweetbriar_2

New Line.l(r:p1udm457-p1ulv303) Units=km Length=0.0111159 bus1=p1udm457.1.2 bus2=p1ulv303.1.2 switch=n enabled=y phases=2 Linecode=1P_UG_AL_2/0_Converse_2

New Line.l(r:p1udm457-p1udt120lv) Units=km Length=0.00952451 bus1=p1udt120lv.1.2 bus2=p1udm457.1.2 switch=n enabled=y phases=2 Linecode=1P_UG_AL_2/0_Converse_2

New Line.l(r:p1udm459-p1ulv320) Units=km Length=0.0127821 bus1=p1udm459.1.2 bus2=p1ulv320.1.2 switch=n enabled=y phases=2 Linecode=1P_UG_AL_1/0_Brenau_2

New Line.l(r:p1udm459-p1udt120lv) Units=km Length=0.0190399 bus1=p1udt120lv.1.2 bus2=p1udm459.1.2 switch=n enabled=y phases=2 Linecode=1P_UG_AL_1/0_Brenau_2

New Line.l(r:p1udt126lv-p1ulv313) Units=km Length=0.011701 bus1=p1udt126lv.1.2 bus2=p1ulv313.1.2 switch=n enabled=y phases=2 Linecode=1P_OH_AL_2/0_Rucina_2

New Line.l(r:p1udm468-p1ulv311) Units=km Length=0.0079167 bus1=p1udm468.1.2 bus2=p1ulv311.1.2 switch=n enabled=y phases=2 Linecode=1P_OH_AL_2/0_Rucina_2

New Line.l(r:p1udm468-p1udt126lv) Units=km Length=0.069706 bus1=p1udt126lv.1.2 bus2=p1udm468.1.2 switch=n enabled=y phases=2 Linecode=1P_OH_AL_4/0_Zuzara_2

New Line.l(r:p1udm469-p1ulv312) Units=km Length=0.0110316 bus1=p1udm469.1.2 bus2=p1ulv312.1.2 switch=n enabled=y phases=2 Linecode=1P_OH_AL_2/0_Rucina_2

New Line.l(r:p1udm469-p1udt126lv) Units=km Length=0.018495400000000002 bus1=p1udt126lv.1.2 bus2=p1udm469.1.2 switch=n enabled=y phases=2 Linecode=1P_OH_AL_2/0_Rucina_2

New Line.l(r:p1udm471-p1ulv314) Units=km Length=0.0102684 bus1=p1udm471.1.2 bus2=p1ulv314.1.2 switch=n enabled=y phases=2 Linecode=1P_OH_AL_2/0_Rucina_2

New Line.l(r:p1udm471-p1udt127lv) Units=km Length=0.0552215 bus1=p1udt127lv.1.2 bus2=p1udm471.1.2 switch=n enabled=y phases=2 Linecode=1P_OH_AL_4/0_Zuzara_2

New Line.l(r:p1udm472-p1ulv315) Units=km Length=0.0131131 bus1=p1udm472.1.2 bus2=p1ulv315.1.2 switch=n enabled=y phases=2 Linecode=1P_UG_AL_4/0_Sweetbriar_2

New Line.l(r:p1udm472-p1udt127lv) Units=km Length=0.0285544 bus1=p1udt127lv.1.2 bus2=p1udm472.1.2 switch=n enabled=y phases=2 Linecode=1P_UG_AL_4/0_Sweetbriar_2

New Line.l(r:p1udt128lv-p1ulv316) Units=km Length=0.012751400000000001 bus1=p1udt128lv.1.2 bus2=p1ulv316.1.2 switch=n enabled=y phases=2 Linecode=1P_UG_AL_4/0_Sweetbriar_2

New Line.l(r:p1udt129lv-p1ulv560) Units=km Length=0.00871876 bus1=p1udt129lv.1.2 bus2=p1ulv560.1.2 switch=n enabled=y phases=2 Linecode=1P_UG_AL_1/0_Brenau_2

New Line.l(r:p1udm474-p1ulv319) Units=km Length=0.0118226 bus1=p1udm474.1.2 bus2=p1ulv319.1.2 switch=n enabled=y phases=2 Linecode=1P_UG_AL_1/0_Brenau_2

New Line.l(r:p1udm476-p1ulv651) Units=km Length=0.0105041 bus1=p1udm476.1.2 bus2=p1ulv651.1.2 switch=n enabled=y phases=2 Linecode=1P_UG_AL_1/0_Brenau_2

New Line.l(r:p1udm474-p1udm476) Units=km Length=0.0189983 bus1=p1udm474.1.2 bus2=p1udm476.1.2 switch=n enabled=y phases=2 Linecode=1P_UG_AL_1/0_Brenau_2

New Line.l(r:p1udm474-p1udt129lv) Units=km Length=0.00947384 bus1=p1udt129lv.1.2 bus2=p1udm474.1.2 switch=n enabled=y phases=2 Linecode=1P_UG_AL_4/0_Sweetbriar_2

New Line.l(r:p1udm478-p1ulv656) Units=km Length=0.008210050000000002 bus1=p1udm478.1.2 bus2=p1ulv656.1.2 switch=n enabled=y phases=2 Linecode=1P_UG_AL_1/0_Brenau_2

New Line.l(r:p1udm477-p1ulv655) Units=km Length=0.00808174 bus1=p1udm477.1.2 bus2=p1ulv655.1.2 switch=n enabled=y phases=2 Linecode=1P_UG_AL_1/0_Brenau_2

New Line.l(r:p1udm477-p1udm478) Units=km Length=0.0189377 bus1=p1udm478.1.2 bus2=p1udm477.1.2 switch=n enabled=y phases=2 Linecode=1P_UG_AL_1/0_Brenau_2

New Line.l(r:p1udm478-p1udt129lv) Units=km Length=0.0189477 bus1=p1udt129lv.1.2 bus2=p1udm478.1.2 switch=n enabled=y phases=2 Linecode=1P_UG_AL_1/0_Brenau_2

New Line.l(r:p1udm482-p1ulv325) Units=km Length=0.0135607 bus1=p1udm482.1.2 bus2=p1ulv325.1.2 switch=n enabled=y phases=2 Linecode=1P_UG_AL_1/0_Brenau_2

New Line.l(r:p1udm482-p1udt133lv) Units=km Length=0.018916900000000004 bus1=p1udt133lv.1.2 bus2=p1udm482.1.2 switch=n enabled=y phases=2 Linecode=1P_UG_AL_1/0_Brenau_2

New Line.l(r:p1udm483-p1ulv327) Units=km Length=0.0121868 bus1=p1udm483.1.2 bus2=p1ulv327.1.2 switch=n enabled=y phases=2 Linecode=1P_UG_AL_1/0_Brenau_2

New Line.l(r:p1udm483-p1udt133lv) Units=km Length=0.0757251 bus1=p1udt133lv.1.2 bus2=p1udm483.1.2 switch=n enabled=y phases=2 Linecode=1P_UG_AL_1/0_Brenau_2

New Line.l(r:p1udt135lv-p1ulv1906) Units=km Length=0.0132121 bus1=p1udt135lv.1.2 bus2=p1ulv1906.1.2 switch=n enabled=y phases=2 Linecode=1P_UG_AL_1/0_Brenau_2

New Line.l(r:p1udm485-p1ulv329) Units=km Length=0.0157954 bus1=p1udm485.1.2 bus2=p1ulv329.1.2 switch=n enabled=y phases=2 Linecode=1P_UG_AL_1/0_Brenau_2

New Line.l(r:p1udm485-p1udt135lv) Units=km Length=0.00945391 bus1=p1udt135lv.1.2 bus2=p1udm485.1.2 switch=n enabled=y phases=2 Linecode=1P_UG_AL_1/0_Brenau_2

New Line.l(r:p1udt182lv-p1ulv502) Units=km Length=0.00922772 bus1=p1udt182lv.1.2 bus2=p1ulv502.1.2 switch=n enabled=y phases=2 Linecode=1P_UG_AL_4/0_Sweetbriar_2

New Line.l(r:p1udt189lv-p1ulv511) Units=km Length=0.0156682 bus1=p1udt189lv.1.2 bus2=p1ulv511.1.2 switch=n enabled=y phases=2 Linecode=1P_UG_AL_4/0_Sweetbriar_2

New Line.l(r:p1udt215lv-p1ulv1894) Units=km Length=0.0115836 bus1=p1udt215lv.1.2 bus2=p1ulv1894.1.2 switch=n enabled=y phases=2 Linecode=1P_UG_AL_1/0_Brenau_2

New Line.l(r:p1udm775-p1ulv554) Units=km Length=0.014647200000000003 bus1=p1udm775.1.2 bus2=p1ulv554.1.2 switch=n enabled=y phases=2 Linecode=1P_UG_AL_1/0_Brenau_2

New Line.l(r:p1udm775-p1udt215lv) Units=km Length=0.009422450000000002 bus1=p1udt215lv.1.2 bus2=p1udm775.1.2 switch=n enabled=y phases=2 Linecode=1P_UG_AL_1/0_Brenau_2

New Line.l(r:p1udt230lv-p1ulv1620) Units=km Length=0.012839500000000002 bus1=p1udt230lv.1.2 bus2=p1ulv1620.1.2 switch=n enabled=y phases=2 Linecode=1P_UG_AL_1/0_Brenau_2

New Line.l(r:p1udt230lv-p1ulv1655) Units=km Length=0.013737900000000003 bus1=p1udt230lv.1.2 bus2=p1ulv1655.1.2 switch=n enabled=y phases=2 Linecode=1P_UG_AL_2/0_Converse_2

New Line.l(r:p1udm830-p1ulv582) Units=km Length=0.0354247 bus1=p1udm830.1.2 bus2=p1ulv582.1.2 switch=n enabled=y phases=2 Linecode=1P_UG_AL_1/0_Brenau_2

New Line.l(r:p1udm830-p1ulv1654) Units=km Length=0.014156100000000001 bus1=p1udm830.1.2 bus2=p1ulv1654.1.2 switch=n enabled=y phases=2 Linecode=1P_UG_AL_1/0_Brenau_2

New Line.l(r:p1udm830-p1udt230lv) Units=km Length=0.0099223 bus1=p1udt230lv.1.2 bus2=p1udm830.1.2 switch=n enabled=y phases=2 Linecode=1P_UG_AL_1/0_Brenau_2

New Line.l(r:p1udm832-p1ulv1621) Units=km Length=0.0128155 bus1=p1udm832.1.2 bus2=p1ulv1621.1.2 switch=n enabled=y phases=2 Linecode=1P_UG_AL_1/0_Brenau_2

New Line.l(r:p1udm832-p1ulv1653) Units=km Length=0.013751600000000001 bus1=p1udm832.1.2 bus2=p1ulv1653.1.2 switch=n enabled=y phases=2 Linecode=1P_UG_AL_1/0_Brenau_2

New Line.l(r:p1udm832-p1udt230lv) Units=km Length=0.009932270000000002 bus1=p1udt230lv.1.2 bus2=p1udm832.1.2 switch=n enabled=y phases=2 Linecode=1P_UG_AL_2/0_Converse_2

New Line.l(r:p1udm836-p1ulv584) Units=km Length=0.0268561 bus1=p1udm836.1.2 bus2=p1ulv584.1.2 switch=n enabled=y phases=2 Linecode=1P_OH_AL_2/0_Rucina_2

New Line.l(r:p1udm836-p1udt231lv) Units=km Length=0.039449 bus1=p1udt231lv.1.2 bus2=p1udm836.1.2 switch=n enabled=y phases=2 Linecode=1P_OH_AL_4/0_Zuzara_2

New Line.l(r:p1udm837-p1ulv1839) Units=km Length=0.0156389 bus1=p1udm837.1.2 bus2=p1ulv1839.1.2 switch=n enabled=y phases=2 Linecode=1P_OH_AL_2/0_Rucina_2

New Line.l(r:p1udm837-p1udt231lv) Units=km Length=0.0394544 bus1=p1udt231lv.1.2 bus2=p1udm837.1.2 switch=n enabled=y phases=2 Linecode=1P_OH_AL_4/0_Zuzara_2

New Line.l(r:p1udt232lv-p1ulv585) Units=km Length=0.00715 bus1=p1udt232lv.1.2 bus2=p1ulv585.1.2 switch=n enabled=y phases=2 Linecode=1P_OH_AL_2/0_Rucina_2

New Line.l(r:p1udm839-p1ulv1955) Units=km Length=0.00663618 bus1=p1udm839.1.2 bus2=p1ulv1955.1.2 switch=n enabled=y phases=2 Linecode=1P_OH_AL_2/0_Rucina_2

New Line.l(r:p1udm839-p1udt232lv) Units=km Length=0.0190165 bus1=p1udt232lv.1.2 bus2=p1udm839.1.2 switch=n enabled=y phases=2 Linecode=1P_OH_AL_2/0_Rucina_2

New Line.l(r:p1udt380lv-p1ulv1569) Units=km Length=0.0104667 bus1=p1udt380lv.1.2 bus2=p1ulv1569.1.2 switch=n enabled=y phases=2 Linecode=1P_UG_AL_1/0_Brenau_2

New Line.l(r:p1udt380lv-p1ulv4104) Units=km Length=0.00966445 bus1=p1udt380lv.1.2 bus2=p1ulv4104.1.2 switch=n enabled=y phases=2 Linecode=1P_UG_AL_4/0_Sweetbriar_2

New Line.l(r:p1udm1519-p1ulv1570) Units=km Length=0.00996763 bus1=p1udm1519.1.2 bus2=p1ulv1570.1.2 switch=n enabled=y phases=2 Linecode=1P_UG_AL_1/0_Brenau_2

New Line.l(r:p1udm1519-p1udt380lv) Units=km Length=0.009262900000000001 bus1=p1udt380lv.1.2 bus2=p1udm1519.1.2 switch=n enabled=y phases=2 Linecode=1P_UG_AL_1/0_Brenau_2

New Line.l(r:p1udm1522-p1ulv4105) Units=km Length=0.009053940000000002 bus1=p1udm1522.1.2 bus2=p1ulv4105.1.2 switch=n enabled=y phases=2 Linecode=1P_UG_AL_1/0_Brenau_2

New Line.l(r:p1udm1520-p1ulv1571) Units=km Length=0.0106242 bus1=p1udm1520.1.2 bus2=p1ulv1571.1.2 switch=n enabled=y phases=2 Linecode=1P_UG_AL_1/0_Brenau_2

New Line.l(r:p1udm1520-p1udm1522) Units=km Length=0.00927286 bus1=p1udm1522.1.2 bus2=p1udm1520.1.2 switch=n enabled=y phases=2 Linecode=1P_UG_AL_1/0_Brenau_2

New Line.l(r:p1udm1522-p1udt380lv) Units=km Length=0.00926206 bus1=p1udt380lv.1.2 bus2=p1udm1522.1.2 switch=n enabled=y phases=2 Linecode=1P_UG_AL_1/0_Brenau_2

New Line.l(r:p1udt381lv-p1ulv4093) Units=km Length=0.00947419 bus1=p1udt381lv.1.2 bus2=p1ulv4093.1.2 switch=n enabled=y phases=2 Linecode=1P_UG_AL_1/0_Brenau_2

New Line.l(r:p1udm1523-p1ulv1572) Units=km Length=0.0105481 bus1=p1udm1523.1.2 bus2=p1ulv1572.1.2 switch=n enabled=y phases=2 Linecode=1P_UG_AL_4/0_Sweetbriar_2

New Line.l(r:p1udm1523-p1udt381lv) Units=km Length=0.019069 bus1=p1udt381lv.1.2 bus2=p1udm1523.1.2 switch=n enabled=y phases=2 Linecode=1P_UG_AL_4/0_Sweetbriar_2

New Line.l(r:p1udt382lv-p1ulv1577) Units=km Length=0.00793063 bus1=p1udt382lv.1.2 bus2=p1ulv1577.1.2 switch=n enabled=y phases=2 Linecode=1P_OH_AL_2/0_Rucina_2

New Line.l(r:p1udm1526-p1ulv1576) Units=km Length=0.00808254 bus1=p1udm1526.1.2 bus2=p1ulv1576.1.2 switch=n enabled=y phases=2 Linecode=1P_OH_AL_2/0_Rucina_2

New Line.l(r:p1udm1526-p1udt382lv) Units=km Length=0.0363532 bus1=p1udt382lv.1.2 bus2=p1udm1526.1.2 switch=n enabled=y phases=2 Linecode=1P_OH_AL_4/0_Zuzara_2

New Line.l(r:p1udm1528-p1ulv1579) Units=km Length=0.009537490000000001 bus1=p1udm1528.1.2 bus2=p1ulv1579.1.2 switch=n enabled=y phases=2 Linecode=1P_OH_AL_2/0_Rucina_2

New Line.l(r:p1udm1525-p1ulv1573) Units=km Length=0.00926059 bus1=p1udm1525.1.2 bus2=p1ulv1573.1.2 switch=n enabled=y phases=2 Linecode=1P_OH_AL_2/0_Rucina_2

New Line.l(r:p1udm1525-p1udm1528) Units=km Length=0.0181712 bus1=p1udm1528.1.2 bus2=p1udm1525.1.2 switch=n enabled=y phases=2 Linecode=1P_OH_AL_2/0_Rucina_2

New Line.l(r:p1udm1528-p1udt382lv) Units=km Length=0.018172 bus1=p1udt382lv.1.2 bus2=p1udm1528.1.2 switch=n enabled=y phases=2 Linecode=1P_OH_AL_2/0_Rucina_2

New Line.l(r:p1udt383lv-p1ulv1575) Units=km Length=0.0109848 bus1=p1udt383lv.1.2 bus2=p1ulv1575.1.2 switch=n enabled=y phases=2 Linecode=1P_UG_AL_1/0_Brenau_2

New Line.l(r:p1udt383lv-p1ulv1615) Units=km Length=0.0124793 bus1=p1udt383lv.1.2 bus2=p1ulv1615.1.2 switch=n enabled=y phases=2 Linecode=1P_UG_AL_1/0_Brenau_2

New Line.l(r:p1udm1530-p1ulv1582) Units=km Length=0.0112609 bus1=p1udm1530.1.2 bus2=p1ulv1582.1.2 switch=n enabled=y phases=2 Linecode=1P_UG_AL_1/0_Brenau_2

New Line.l(r:p1udm1530-p1ulv1614) Units=km Length=0.0123486 bus1=p1udm1530.1.2 bus2=p1ulv1614.1.2 switch=n enabled=y phases=2 Linecode=1P_UG_AL_2/0_Converse_2

New Line.l(r:p1udm1530-p1udt383lv) Units=km Length=0.00980691 bus1=p1udt383lv.1.2 bus2=p1udm1530.1.2 switch=n enabled=y phases=2 Linecode=1P_UG_AL_4/0_Sweetbriar_2

New Line.l(r:p1udm1533-p1ulv1616) Units=km Length=0.0124045 bus1=p1udm1533.1.2 bus2=p1ulv1616.1.2 switch=n enabled=y phases=2 Linecode=1P_UG_AL_2/0_Converse_2

New Line.l(r:p1udm1533-p1udt383lv) Units=km Length=0.00980691 bus1=p1udt383lv.1.2 bus2=p1udm1533.1.2 switch=n enabled=y phases=2 Linecode=1P_UG_AL_2/0_Converse_2

New Line.l(r:p1udt384lv-p1ulv1580) Units=km Length=0.0113801 bus1=p1udt384lv.1.2 bus2=p1ulv1580.1.2 switch=n enabled=y phases=2 Linecode=1P_UG_AL_1/0_Brenau_2

New Line.l(r:p1udm1535-p1ulv1581) Units=km Length=0.0117252 bus1=p1udm1535.1.2 bus2=p1ulv1581.1.2 switch=n enabled=y phases=2 Linecode=1P_UG_AL_1/0_Brenau_2

New Line.l(r:p1udm1535-p1udt384lv) Units=km Length=0.00980691 bus1=p1udt384lv.1.2 bus2=p1udm1535.1.2 switch=n enabled=y phases=2 Linecode=1P_UG_AL_1/0_Brenau_2

New Line.l(r:p1udm1536-p1ulv1584) Units=km Length=0.011492100000000002 bus1=p1udm1536.1.2 bus2=p1ulv1584.1.2 switch=n enabled=y phases=2 Linecode=1P_UG_AL_2/0_Converse_2

New Line.l(r:p1udm1536-p1udt384lv) Units=km Length=0.00980604 bus1=p1udt384lv.1.2 bus2=p1udm1536.1.2 switch=n enabled=y phases=2 Linecode=1P_UG_AL_2/0_Converse_2

New Line.l(r:p1udt385lv-p1ulv1586) Units=km Length=0.011900800000000001 bus1=p1udt385lv.1.2 bus2=p1ulv1586.1.2 switch=n enabled=y phases=2 Linecode=1P_UG_AL_2/0_Converse_2

New Line.l(r:p1udt385lv-p1ulv1588) Units=km Length=0.0124508 bus1=p1udt385lv.1.2 bus2=p1ulv1588.1.2 switch=n enabled=y phases=2 Linecode=1P_UG_AL_4/0_Sweetbriar_2

New Line.l(r:p1udt385lv-p1ulv1624) Units=km Length=0.01617 bus1=p1udt385lv.1.2 bus2=p1ulv1624.1.2 switch=n enabled=y phases=2 Linecode=1P_UG_AL_1/0_Brenau_2

New Line.l(r:p1udt386lv-p1ulv1587) Units=km Length=0.0122843 bus1=p1udt386lv.1.2 bus2=p1ulv1587.1.2 switch=n enabled=y phases=2 Linecode=1P_UG_AL_1/0_Brenau_2

New Line.l(r:p1udt386lv-p1ulv1628) Units=km Length=0.0165022 bus1=p1udt386lv.1.2 bus2=p1ulv1628.1.2 switch=n enabled=y phases=2 Linecode=1P_UG_AL_1/0_Brenau_2

New Line.l(r:p1udm1543-p1ulv1629) Units=km Length=0.0157035 bus1=p1udm1543.1.2 bus2=p1ulv1629.1.2 switch=n enabled=y phases=2 Linecode=1P_UG_AL_1/0_Brenau_2

New Line.l(r:p1udm1544-p1ulv1630) Units=km Length=0.0160061 bus1=p1udm1544.1.2 bus2=p1ulv1630.1.2 switch=n enabled=y phases=2 Linecode=1P_UG_AL_1/0_Brenau_2

New Line.l(r:p1udm1541-p1ulv1622) Units=km Length=0.0128449 bus1=p1udm1541.1.2 bus2=p1ulv1622.1.2 switch=n enabled=y phases=2 Linecode=1P_UG_AL_1/0_Brenau_2

New Line.l(r:p1udm1541-p1udm1544) Units=km Length=0.00980691 bus1=p1udm1544.1.2 bus2=p1udm1541.1.2 switch=n enabled=y phases=2 Linecode=1P_UG_AL_1/0_Brenau_2

New Line.l(r:p1udm1543-p1udm1544) Units=km Length=0.00980691 bus1=p1udm1543.1.2 bus2=p1udm1544.1.2 switch=n enabled=y phases=2 Linecode=1P_UG_AL_4/0_Sweetbriar_2

New Line.l(r:p1udm1543-p1udt386lv) Units=km Length=0.00980691 bus1=p1udt386lv.1.2 bus2=p1udm1543.1.2 switch=n enabled=y phases=2 Linecode=1P_UG_AL_4/0_Sweetbriar_2

New Line.l(r:p1udm1545-p1ulv1632) Units=km Length=0.0165192 bus1=p1udm1545.1.2 bus2=p1ulv1632.1.2 switch=n enabled=y phases=2 Linecode=1P_UG_AL_1/0_Brenau_2

New Line.l(r:p1udm1546-p1ulv1633) Units=km Length=0.0156798 bus1=p1udm1546.1.2 bus2=p1ulv1633.1.2 switch=n enabled=y phases=2 Linecode=1P_UG_AL_1/0_Brenau_2

New Line.l(r:p1udm1545-p1udm1546) Units=km Length=0.00979694 bus1=p1udm1545.1.2 bus2=p1udm1546.1.2 switch=n enabled=y phases=2 Linecode=1P_UG_AL_1/0_Brenau_2

New Line.l(r:p1udm1545-p1udt386lv) Units=km Length=0.00980691 bus1=p1udt386lv.1.2 bus2=p1udm1545.1.2 switch=n enabled=y phases=2 Linecode=1P_UG_AL_1/0_Brenau_2

New Line.l(r:p1udt388lv-p1ulv1590) Units=km Length=0.0120204 bus1=p1udt388lv.1.2 bus2=p1ulv1590.1.2 switch=n enabled=y phases=2 Linecode=1P_UG_AL_1/0_Brenau_2

New Line.l(r:p1udt388lv-p1ulv1635) Units=km Length=0.0167263 bus1=p1udt388lv.1.2 bus2=p1ulv1635.1.2 switch=n enabled=y phases=2 Linecode=1P_UG_AL_1/0_Brenau_2

New Line.l(r:p1udm1549-p1ulv1595) Units=km Length=0.014406600000000002 bus1=p1udm1549.1.2 bus2=p1ulv1595.1.2 switch=n enabled=y phases=2 Linecode=1P_UG_AL_1/0_Brenau_2

New Line.l(r:p1udm1549-p1udt388lv) Units=km Length=0.00980604 bus1=p1udt388lv.1.2 bus2=p1udm1549.1.2 switch=n enabled=y phases=2 Linecode=1P_UG_AL_1/0_Brenau_2

New Line.l(r:p1udm1551-p1ulv1591) Units=km Length=0.00787742 bus1=p1udm1551.1.2 bus2=p1ulv1591.1.2 switch=n enabled=y phases=2 Linecode=1P_OH_AL_2/0_Rucina_2

New Line.l(r:p1udm1551-p1udt389lv) Units=km Length=0.0116613 bus1=p1udt389lv.1.2 bus2=p1udm1551.1.2 switch=n enabled=y phases=2 Linecode=1P_OH_AL_2/0_Rucina_2

New Line.l(r:p1udm1552-p1ulv1592) Units=km Length=0.00621737 bus1=p1udm1552.1.2 bus2=p1ulv1592.1.2 switch=n enabled=y phases=2 Linecode=1P_OH_AL_2/0_Rucina_2

New Line.l(r:p1udm1552-p1udt389lv) Units=km Length=0.0189148 bus1=p1udt389lv.1.2 bus2=p1udm1552.1.2 switch=n enabled=y phases=2 Linecode=1P_OH_AL_2/0_Rucina_2

New Line.l(r:p1udt390lv-p1ulv1596) Units=km Length=0.0122004 bus1=p1udt390lv.1.2 bus2=p1ulv1596.1.2 switch=n enabled=y phases=2 Linecode=1P_UG_AL_4/0_Sweetbriar_2

New Line.l(r:p1udm1556-p1ulv1600) Units=km Length=0.012400000000000001 bus1=p1udm1556.1.2 bus2=p1ulv1600.1.2 switch=n enabled=y phases=2 Linecode=1P_UG_AL_4/0_Sweetbriar_2

New Line.l(r:p1udm1557-p1ulv7575) Units=km Length=0.00922246 bus1=p1udm1557.1.2 bus2=p1ulv7575.1.2 switch=n enabled=y phases=2 Linecode=1P_UG_AL_1/0_Brenau_2

New Line.l(r:p1udm1556-p1udm1557) Units=km Length=0.0188422 bus1=p1udm1556.1.2 bus2=p1udm1557.1.2 switch=n enabled=y phases=2 Linecode=1P_UG_AL_1/0_Brenau_2

New Line.l(r:p1udm1556-p1udt393lv) Units=km Length=0.00942152 bus1=p1udt393lv.1.2 bus2=p1udm1556.1.2 switch=n enabled=y phases=2 Linecode=1P_UG_AL_4/0_Sweetbriar_2

New Line.l(r:p1udm1558-p1ulv7579) Units=km Length=0.009623 bus1=p1udm1558.1.2 bus2=p1ulv7579.1.2 switch=n enabled=y phases=2 Linecode=1P_UG_AL_1/0_Brenau_2

New Line.l(r:p1udm1558-p1udt393lv) Units=km Length=0.0416694 bus1=p1udt393lv.1.2 bus2=p1udm1558.1.2 switch=n enabled=y phases=2 Linecode=1P_UG_AL_1/0_Brenau_2

New Line.l(r:p1udt396lv-p1ulv1603) Units=km Length=0.010688400000000002 bus1=p1udt396lv.1.2 bus2=p1ulv1603.1.2 switch=n enabled=y phases=2 Linecode=1P_UG_AL_1/0_Brenau_2

New Line.l(r:p1udt397lv-p1ulv1605) Units=km Length=0.00738799 bus1=p1udt397lv.1.2 bus2=p1ulv1605.1.2 switch=n enabled=y phases=2 Linecode=1P_OH_AL_2/0_Rucina_2

New Line.l(r:p1udt397lv-p1ulv1606) Units=km Length=0.00888821 bus1=p1udt397lv.1.2 bus2=p1ulv1606.1.2 switch=n enabled=y phases=2 Linecode=1P_OH_AL_2/0_Rucina_2

New Line.l(r:p1udm1564-p1ulv1608) Units=km Length=0.0109094 bus1=p1udm1564.1.2 bus2=p1ulv1608.1.2 switch=n enabled=y phases=2 Linecode=1P_UG_AL_1/0_Brenau_2

New Line.l(r:p1udm1564-p1udt398lv) Units=km Length=0.0188655 bus1=p1udt398lv.1.2 bus2=p1udm1564.1.2 switch=n enabled=y phases=2 Linecode=1P_UG_AL_1/0_Brenau_2

New Line.l(r:p1udm1565-p1ulv1648) Units=km Length=0.0353311 bus1=p1udm1565.1.2 bus2=p1ulv1648.1.2 switch=n enabled=y phases=2 Linecode=1P_UG_AL_1/0_Brenau_2

New Line.l(r:p1udm1565-p1udt398lv) Units=km Length=0.00943312 bus1=p1udt398lv.1.2 bus2=p1udm1565.1.2 switch=n enabled=y phases=2 Linecode=1P_UG_AL_1/0_Brenau_2

New Line.l(r:p1udt399lv-p1ulv1617) Units=km Length=0.0106223 bus1=p1udt399lv.1.2 bus2=p1ulv1617.1.2 switch=n enabled=y phases=2 Linecode=1P_UG_AL_4/0_Sweetbriar_2

New Line.l(r:p1udm1566-p1ulv1609) Units=km Length=0.010703100000000002 bus1=p1udm1566.1.2 bus2=p1ulv1609.1.2 switch=n enabled=y phases=2 Linecode=1P_UG_AL_1/0_Brenau_2

New Line.l(r:p1udm1566-p1udt399lv) Units=km Length=0.00944227 bus1=p1udt399lv.1.2 bus2=p1udm1566.1.2 switch=n enabled=y phases=2 Linecode=1P_UG_AL_1/0_Brenau_2

New Line.l(r:p1udt400lv-p1ulv1611) Units=km Length=0.0108548 bus1=p1udt400lv.1.2 bus2=p1ulv1611.1.2 switch=n enabled=y phases=2 Linecode=1P_UG_AL_1/0_Brenau_2

New Line.l(r:p1udm1568-p1ulv1610) Units=km Length=0.0106167 bus1=p1udm1568.1.2 bus2=p1ulv1610.1.2 switch=n enabled=y phases=2 Linecode=1P_UG_AL_1/0_Brenau_2

New Line.l(r:p1udm1568-p1ulv4045) Units=km Length=0.00867148 bus1=p1udm1568.1.2 bus2=p1ulv4045.1.2 switch=n enabled=y phases=2 Linecode=1P_UG_AL_4/0_Sweetbriar_2

New Line.l(r:p1udm1568-p1udt400lv) Units=km Length=0.00944227 bus1=p1udt400lv.1.2 bus2=p1udm1568.1.2 switch=n enabled=y phases=2 Linecode=1P_UG_AL_4/0_Sweetbriar_2

New Line.l(r:p1udm1570-p1ulv1612) Units=km Length=0.0106054 bus1=p1udm1570.1.2 bus2=p1ulv1612.1.2 switch=n enabled=y phases=2 Linecode=1P_UG_AL_1/0_Brenau_2

New Line.l(r:p1udm1570-p1udt400lv) Units=km Length=0.00944145 bus1=p1udt400lv.1.2 bus2=p1udm1570.1.2 switch=n enabled=y phases=2 Linecode=1P_UG_AL_1/0_Brenau_2

New Line.l(r:p1udm1572-p1ulv1613) Units=km Length=0.00919288 bus1=p1udm1572.1.2 bus2=p1ulv1613.1.2 switch=n enabled=y phases=2 Linecode=1P_UG_AL_1/0_Brenau_2

New Line.l(r:p1udm1572-p1udt401lv) Units=km Length=0.0201851 bus1=p1udt401lv.1.2 bus2=p1udm1572.1.2 switch=n enabled=y phases=2 Linecode=1P_UG_AL_1/0_Brenau_2

New Line.l(r:p1udm1573-p1ulv1652) Units=km Length=0.0110028 bus1=p1udm1573.1.2 bus2=p1ulv1652.1.2 switch=n enabled=y phases=2 Linecode=1P_UG_AL_2/0_Converse_2

New Line.l(r:p1udm1573-p1udt401lv) Units=km Length=0.0280022 bus1=p1udt401lv.1.2 bus2=p1udm1573.1.2 switch=n enabled=y phases=2 Linecode=1P_UG_AL_2/0_Converse_2

New Line.l(r:p1udm1574-p1ulv4054) Units=km Length=0.00796006 bus1=p1udm1574.1.2 bus2=p1ulv4054.1.2 switch=n enabled=y phases=2 Linecode=1P_UG_AL_4/0_Sweetbriar_2

New Line.l(r:p1udm1574-p1udt401lv) Units=km Length=0.0185209 bus1=p1udt401lv.1.2 bus2=p1udm1574.1.2 switch=n enabled=y phases=2 Linecode=1P_UG_AL_4/0_Sweetbriar_2

New Line.l(r:p1udm1575-p1ulv7626) Units=km Length=0.0108275 bus1=p1udm1575.1.2 bus2=p1ulv7626.1.2 switch=n enabled=y phases=2 Linecode=1P_UG_AL_1/0_Brenau_2

New Line.l(r:p1udm1575-p1udt401lv) Units=km Length=0.0314081 bus1=p1udt401lv.1.2 bus2=p1udm1575.1.2 switch=n enabled=y phases=2 Linecode=1P_UG_AL_1/0_Brenau_2

New Line.l(r:p1udt402lv-p1ulv1659) Units=km Length=0.0151903 bus1=p1udt402lv.1.2 bus2=p1ulv1659.1.2 switch=n enabled=y phases=2 Linecode=1P_UG_AL_1/0_Brenau_2

New Line.l(r:p1udm1576-p1ulv1625) Units=km Length=0.0124434 bus1=p1udm1576.1.2 bus2=p1ulv1625.1.2 switch=n enabled=y phases=2 Linecode=1P_UG_AL_1/0_Brenau_2

New Line.l(r:p1udm1577-p1ulv1626) Units=km Length=0.0126018 bus1=p1udm1577.1.2 bus2=p1ulv1626.1.2 switch=n enabled=y phases=2 Linecode=1P_UG_AL_1/0_Brenau_2

New Line.l(r:p1udm1577-p1ulv1665) Units=km Length=0.0155131 bus1=p1udm1577.1.2 bus2=p1ulv1665.1.2 switch=n enabled=y phases=2 Linecode=1P_UG_AL_1/0_Brenau_2

New Line.l(r:p1udm1576-p1udm1577) Units=km Length=0.00992311 bus1=p1udm1576.1.2 bus2=p1udm1577.1.2 switch=n enabled=y phases=2 Linecode=1P_UG_AL_1/0_Brenau_2

New Line.l(r:p1udm1576-p1udt402lv) Units=km Length=0.009932270000000002 bus1=p1udt402lv.1.2 bus2=p1udm1576.1.2 switch=n enabled=y phases=2 Linecode=1P_UG_AL_4/0_Sweetbriar_2

New Line.l(r:p1udm1580-p1ulv1660) Units=km Length=0.0146432 bus1=p1udm1580.1.2 bus2=p1ulv1660.1.2 switch=n enabled=y phases=2 Linecode=1P_UG_AL_1/0_Brenau_2

New Line.l(r:p1udm1578-p1ulv1657) Units=km Length=0.01427 bus1=p1udm1578.1.2 bus2=p1ulv1657.1.2 switch=n enabled=y phases=2 Linecode=1P_UG_AL_1/0_Brenau_2

New Line.l(r:p1udm1578-p1udm1580) Units=km Length=0.0099223 bus1=p1udm1580.1.2 bus2=p1udm1578.1.2 switch=n enabled=y phases=2 Linecode=1P_UG_AL_1/0_Brenau_2

New Line.l(r:p1udm1580-p1udt402lv) Units=km Length=0.0099223 bus1=p1udt402lv.1.2 bus2=p1udm1580.1.2 switch=n enabled=y phases=2 Linecode=1P_UG_AL_4/0_Sweetbriar_2

New Line.l(r:p1udt403lv-p1ulv1637) Units=km Length=0.0123581 bus1=p1udt403lv.1.2 bus2=p1ulv1637.1.2 switch=n enabled=y phases=2 Linecode=1P_UG_AL_1/0_Brenau_2

New Line.l(r:p1udt403lv-p1ulv1663) Units=km Length=0.0180819 bus1=p1udt403lv.1.2 bus2=p1ulv1663.1.2 switch=n enabled=y phases=2 Linecode=1P_UG_AL_1/0_Brenau_2

New Line.l(r:p1udm1583-p1ulv1636) Units=km Length=0.0129263 bus1=p1udm1583.1.2 bus2=p1ulv1636.1.2 switch=n enabled=y phases=2 Linecode=1P_UG_AL_1/0_Brenau_2

New Line.l(r:p1udm1583-p1ulv1664) Units=km Length=0.016742 bus1=p1udm1583.1.2 bus2=p1ulv1664.1.2 switch=n enabled=y phases=2 Linecode=1P_UG_AL_1/0_Brenau_2

New Line.l(r:p1udm1588-p1ulv1661) Units=km Length=0.0153895 bus1=p1udm1588.1.2 bus2=p1ulv1661.1.2 switch=n enabled=y phases=2 Linecode=1P_UG_AL_1/0_Brenau_2

New Line.l(r:p1udm1583-p1udm1588) Units=km Length=0.0198554 bus1=p1udm1583.1.2 bus2=p1udm1588.1.2 switch=n enabled=y phases=2 Linecode=1P_UG_AL_1/0_Brenau_2

New Line.l(r:p1udm1583-p1udt403lv) Units=km Length=0.0099223 bus1=p1udt403lv.1.2 bus2=p1udm1583.1.2 switch=n enabled=y phases=2 Linecode=1P_UG_AL_4/0_Sweetbriar_2

New Line.l(r:p1udm1585-p1ulv1639) Units=km Length=0.0124433 bus1=p1udm1585.1.2 bus2=p1ulv1639.1.2 switch=n enabled=y phases=2 Linecode=1P_UG_AL_1/0_Brenau_2
