New Load.load_p1ulv9_1 conn=wye bus1=p1ulv9.1 kV=0.12 Vminpu=0.8 Vmaxpu=1.2 model=1 kW=2.136651452497737 kvar=0.586908988148888 Phases=1 !yearly=com_kw_1363_pu

New Load.load_p1ulv9_2 conn=wye bus1=p1ulv9.2 kV=0.12 Vminpu=0.8 Vmaxpu=1.2 model=1 kW=2.136651452497737 kvar=0.586908988148888 Phases=1 !yearly=com_kw_1363_pu

New Load.load_p1ulv10_1 conn=wye bus1=p1ulv10.1 kV=0.12 Vminpu=0.8 Vmaxpu=1.2 model=1 kW=3.772462172331776 kvar=1.0755387210843397 Phases=1 !yearly=com_kw_29082_pu

New Load.load_p1ulv10_2 conn=wye bus1=p1ulv10.2 kV=0.12 Vminpu=0.8 Vmaxpu=1.2 model=1 kW=3.772462172331776 kvar=1.0755387210843397 Phases=1 !yearly=com_kw_29082_pu

New Load.load_p1umv1 conn=wye bus1=p1umv1.1.2.3 kV=12.47 Vminpu=0.8 Vmaxpu=1.2 model=1 kW=1338.2224346463995 kvar=162.19013678728226 Phases=3 !yearly=com_kw_34258_pu

New Load.load_p1ulv173 conn=wye bus1=p1ulv173.1.2.3 kV=0.48 Vminpu=0.8 Vmaxpu=1.2 model=1 kW=37.11627030823132 kvar=7.676405739882888 Phases=3 !yearly=res_kw_15020_pu

New Load.load_p1ulv174_1 conn=wye bus1=p1ulv174.1 kV=0.12 Vminpu=0.8 Vmaxpu=1.2 model=1 kW=6.643415613436883 kvar=1.2383361080783402 Phases=1 !yearly=com_kw_2502_pu

New Load.load_p1ulv174_2 conn=wye bus1=p1ulv174.2 kV=0.12 Vminpu=0.8 Vmaxpu=1.2 model=1 kW=6.643415613436883 kvar=1.2383361080783402 Phases=1 !yearly=com_kw_2502_pu

New Load.load_p1ulv175_1 conn=wye bus1=p1ulv175.1 kV=0.12 Vminpu=0.8 Vmaxpu=1.2 model=1 kW=3.5405740827457985 kvar=0.6989625234192811 Phases=1 !yearly=res_kw_8200_pu

New Load.load_p1ulv175_2 conn=wye bus1=p1ulv175.2 kV=0.12 Vminpu=0.8 Vmaxpu=1.2 model=1 kW=3.5405740827457985 kvar=0.6989625234192811 Phases=1 !yearly=res_kw_8200_pu

New Load.load_p1umv2 conn=wye bus1=p1umv2.1.2.3 kV=12.47 Vminpu=0.8 Vmaxpu=1.2 model=1 kW=1272.8751841748476 kvar=376.663604448583 Phases=3 !yearly=com_kw_2618_pu

New Load.load_p1ulv285 conn=wye bus1=p1ulv285.1.2.3 kV=0.48 Vminpu=0.8 Vmaxpu=1.2 model=1 kW=33.83585185727026 kvar=8.748828042569295 Phases=3 !yearly=com_kw_20723_pu

New Load.load_p1ulv286_1 conn=wye bus1=p1ulv286.1 kV=0.12 Vminpu=0.8 Vmaxpu=1.2 model=1 kW=7.6983718952824045 kvar=2.2105840342673986 Phases=1 !yearly=com_kw_39521_pu

New Load.load_p1ulv286_2 conn=wye bus1=p1ulv286.2 kV=0.12 Vminpu=0.8 Vmaxpu=1.2 model=1 kW=7.6983718952824045 kvar=2.2105840342673986 Phases=1 !yearly=com_kw_39521_pu

New Load.load_p1ulv292_1 conn=wye bus1=p1ulv292.1 kV=0.12 Vminpu=0.8 Vmaxpu=1.2 model=1 kW=7.122307824406663 kvar=1.492762829375706 Phases=1 !yearly=com_kw_1687_pu

New Load.load_p1ulv292_2 conn=wye bus1=p1ulv292.2 kV=0.12 Vminpu=0.8 Vmaxpu=1.2 model=1 kW=7.122307824406663 kvar=1.492762829375706 Phases=1 !yearly=com_kw_1687_pu

New Load.load_p1ulv293 conn=wye bus1=p1ulv293.1.2.3 kV=0.48 Vminpu=0.8 Vmaxpu=1.2 model=1 kW=43.66108230827864 kvar=13.643163491536573 Phases=3 !yearly=res_kw_83_pu

New Load.load_p1ulv294 conn=wye bus1=p1ulv294.1.2.3 kV=0.48 Vminpu=0.8 Vmaxpu=1.2 model=1 kW=76.8756942489469 kvar=9.548938091846727 Phases=3 !yearly=res_kw_11766_pu

New Load.load_p1ulv295 conn=wye bus1=p1ulv295.1.2.3 kV=0.48 Vminpu=0.8 Vmaxpu=1.2 model=1 kW=57.605438177210175 kvar=10.74325828704017 Phases=3 !yearly=res_kw_2541_pu

New Load.load_p1ulv296 conn=wye bus1=p1ulv296.1.2.3 kV=0.48 Vminpu=0.8 Vmaxpu=1.2 model=1 kW=41.63753038974809 kvar=16.71051952409693 Phases=3 !yearly=res_kw_11651_pu

New Load.load_p1ulv297 conn=wye bus1=p1ulv297.1.2.3 kV=0.48 Vminpu=0.8 Vmaxpu=1.2 model=1 kW=28.84030494203324 kvar=10.72668072520526 Phases=3 !yearly=res_kw_4833_pu

New Load.load_p1ulv298_1 conn=wye bus1=p1ulv298.1 kV=0.12 Vminpu=0.8 Vmaxpu=1.2 model=1 kW=10.768301782563485 kvar=4.727068830966479 Phases=1 !yearly=res_kw_9671_pu

New Load.load_p1ulv298_2 conn=wye bus1=p1ulv298.2 kV=0.12 Vminpu=0.8 Vmaxpu=1.2 model=1 kW=10.768301782563485 kvar=4.727068830966479 Phases=1 !yearly=res_kw_9671_pu

New Load.load_p1ulv299_1 conn=wye bus1=p1ulv299.1 kV=0.12 Vminpu=0.8 Vmaxpu=1.2 model=1 kW=20.497139928113135 kvar=4.843655985939276 Phases=1 !yearly=res_kw_1769_pu

New Load.load_p1ulv299_2 conn=wye bus1=p1ulv299.2 kV=0.12 Vminpu=0.8 Vmaxpu=1.2 model=1 kW=20.497139928113135 kvar=4.843655985939276 Phases=1 !yearly=res_kw_1769_pu

New Load.load_p1ulv300_1 conn=wye bus1=p1ulv300.1 kV=0.12 Vminpu=0.8 Vmaxpu=1.2 model=1 kW=4.158557405971583 kvar=0.947020489180673 Phases=1 !yearly=com_kw_29242_pu

New Load.load_p1ulv300_2 conn=wye bus1=p1ulv300.2 kV=0.12 Vminpu=0.8 Vmaxpu=1.2 model=1 kW=4.158557405971583 kvar=0.947020489180673 Phases=1 !yearly=com_kw_29242_pu

New Load.load_p1ulv301_1 conn=wye bus1=p1ulv301.1 kV=0.12 Vminpu=0.8 Vmaxpu=1.2 model=1 kW=23.544445069535822 kvar=5.599365119392856 Phases=1 !yearly=res_kw_13093_pu

New Load.load_p1ulv301_2 conn=wye bus1=p1ulv301.2 kV=0.12 Vminpu=0.8 Vmaxpu=1.2 model=1 kW=23.544445069535822 kvar=5.599365119392856 Phases=1 !yearly=res_kw_13093_pu

New Load.load_p1ulv302_1 conn=wye bus1=p1ulv302.1 kV=0.12 Vminpu=0.8 Vmaxpu=1.2 model=1 kW=8.196255956783027 kvar=1.8206645562094035 Phases=1 !yearly=res_kw_8006_pu

New Load.load_p1ulv302_2 conn=wye bus1=p1ulv302.2 kV=0.12 Vminpu=0.8 Vmaxpu=1.2 model=1 kW=8.196255956783027 kvar=1.8206645562094035 Phases=1 !yearly=res_kw_8006_pu

New Load.load_p1ulv303_1 conn=wye bus1=p1ulv303.1 kV=0.12 Vminpu=0.8 Vmaxpu=1.2 model=1 kW=11.817160338362793 kvar=2.8654854383625104 Phases=1 !yearly=res_kw_4117_pu

New Load.load_p1ulv303_2 conn=wye bus1=p1ulv303.2 kV=0.12 Vminpu=0.8 Vmaxpu=1.2 model=1 kW=11.817160338362793 kvar=2.8654854383625104 Phases=1 !yearly=res_kw_4117_pu

New Load.load_p1ulv304 conn=wye bus1=p1ulv304.1.2.3 kV=0.48 Vminpu=0.8 Vmaxpu=1.2 model=1 kW=64.73400553054951 kvar=11.175954953029617 Phases=3 !yearly=res_kw_14625_pu

New Load.load_p1ulv305 conn=wye bus1=p1ulv305.1.2.3 kV=0.48 Vminpu=0.8 Vmaxpu=1.2 model=1 kW=37.819428766557266 kvar=12.278306293635486 Phases=3 !yearly=res_kw_210_pu

New Load.load_p1ulv306 conn=wye bus1=p1ulv306.1.2.3 kV=0.48 Vminpu=0.8 Vmaxpu=1.2 model=1 kW=40.36848866918003 kvar=16.294884797855765 Phases=3 !yearly=res_kw_12462_pu

New Load.load_p1ulv307_1 conn=wye bus1=p1ulv307.1 kV=0.12 Vminpu=0.8 Vmaxpu=1.2 model=1 kW=6.223876004091373 kvar=1.8347599970473416 Phases=1 !yearly=res_kw_10940_pu

New Load.load_p1ulv307_2 conn=wye bus1=p1ulv307.2 kV=0.12 Vminpu=0.8 Vmaxpu=1.2 model=1 kW=6.223876004091373 kvar=1.8347599970473416 Phases=1 !yearly=res_kw_10940_pu

New Load.load_p1ulv308 conn=wye bus1=p1ulv308.1.2.3 kV=0.48 Vminpu=0.8 Vmaxpu=1.2 model=1 kW=53.51673534040779 kvar=15.863781009772222 Phases=3 !yearly=res_kw_8951_pu

New Load.load_p1ulv309 conn=wye bus1=p1ulv309.1.2.3 kV=0.48 Vminpu=0.8 Vmaxpu=1.2 model=1 kW=21.72082405511636 kvar=5.959993902262944 Phases=3 !yearly=res_kw_11390_pu

New Load.load_p1ulv310 conn=wye bus1=p1ulv310.1.2.3 kV=0.48 Vminpu=0.8 Vmaxpu=1.2 model=1 kW=47.55172384878918 kvar=17.131480057896212 Phases=3 !yearly=res_kw_264_pu

New Load.load_p1ulv311_1 conn=wye bus1=p1ulv311.1 kV=0.12 Vminpu=0.8 Vmaxpu=1.2 model=1 kW=3.895690985965537 kvar=0.9400572249599172 Phases=1 !yearly=com_kw_22691_pu

New Load.load_p1ulv311_2 conn=wye bus1=p1ulv311.2 kV=0.12 Vminpu=0.8 Vmaxpu=1.2 model=1 kW=3.895690985965537 kvar=0.9400572249599172 Phases=1 !yearly=com_kw_22691_pu

New Load.load_p1ulv312_1 conn=wye bus1=p1ulv312.1 kV=0.12 Vminpu=0.8 Vmaxpu=1.2 model=1 kW=7.206219411717723 kvar=0.363557441071462 Phases=1 !yearly=com_kw_16811_pu

New Load.load_p1ulv312_2 conn=wye bus1=p1ulv312.2 kV=0.12 Vminpu=0.8 Vmaxpu=1.2 model=1 kW=7.206219411717723 kvar=0.363557441071462 Phases=1 !yearly=com_kw_16811_pu

New Load.load_p1ulv313_1 conn=wye bus1=p1ulv313.1 kV=0.12 Vminpu=0.8 Vmaxpu=1.2 model=1 kW=3.895690985965537 kvar=0.9400572249599172 Phases=1 !yearly=com_kw_22691_pu

New Load.load_p1ulv313_2 conn=wye bus1=p1ulv313.2 kV=0.12 Vminpu=0.8 Vmaxpu=1.2 model=1 kW=3.895690985965537 kvar=0.9400572249599172 Phases=1 !yearly=com_kw_22691_pu

New Load.load_p1ulv314_1 conn=wye bus1=p1ulv314.1 kV=0.12 Vminpu=0.8 Vmaxpu=1.2 model=1 kW=5.068826715582349 kvar=1.1031903829256036 Phases=1 !yearly=com_kw_16563_pu

New Load.load_p1ulv314_2 conn=wye bus1=p1ulv314.2 kV=0.12 Vminpu=0.8 Vmaxpu=1.2 model=1 kW=5.068826715582349 kvar=1.1031903829256036 Phases=1 !yearly=com_kw_16563_pu

New Load.load_p1ulv315_1 conn=wye bus1=p1ulv315.1 kV=0.12 Vminpu=0.8 Vmaxpu=1.2 model=1 kW=7.267599867313152 kvar=1.4377569404384938 Phases=1 !yearly=com_kw_17049_pu

New Load.load_p1ulv315_2 conn=wye bus1=p1ulv315.2 kV=0.12 Vminpu=0.8 Vmaxpu=1.2 model=1 kW=7.267599867313152 kvar=1.4377569404384938 Phases=1 !yearly=com_kw_17049_pu

New Load.load_p1ulv316_1 conn=wye bus1=p1ulv316.1 kV=0.12 Vminpu=0.8 Vmaxpu=1.2 model=1 kW=6.368153496613492 kvar=0.8935669135511228 Phases=1 !yearly=com_kw_33855_pu

New Load.load_p1ulv316_2 conn=wye bus1=p1ulv316.2 kV=0.12 Vminpu=0.8 Vmaxpu=1.2 model=1 kW=6.368153496613492 kvar=0.8935669135511228 Phases=1 !yearly=com_kw_33855_pu

New Load.load_p1ulv317_1 conn=wye bus1=p1ulv316.1 kV=0.12 Vminpu=0.8 Vmaxpu=1.2 model=1 kW=4.85611171572641 kvar=0.8828716985565567 Phases=1 !yearly=res_kw_10696_pu

New Load.load_p1ulv317_2 conn=wye bus1=p1ulv316.2 kV=0.12 Vminpu=0.8 Vmaxpu=1.2 model=1 kW=4.85611171572641 kvar=0.8828716985565567 Phases=1 !yearly=res_kw_10696_pu

New Load.load_p1ulv318_1 conn=wye bus1=p1ulv318.1 kV=0.12 Vminpu=0.8 Vmaxpu=1.2 model=1 kW=15.106938490220239 kvar=5.333977193481505 Phases=1 !yearly=res_kw_2956_pu

New Load.load_p1ulv318_2 conn=wye bus1=p1ulv318.2 kV=0.12 Vminpu=0.8 Vmaxpu=1.2 model=1 kW=15.106938490220239 kvar=5.333977193481505 Phases=1 !yearly=res_kw_2956_pu

New Load.load_p1ulv319_1 conn=wye bus1=p1ulv319.1 kV=0.12 Vminpu=0.8 Vmaxpu=1.2 model=1 kW=10.625111429420313 kvar=1.3578067952177435 Phases=1 !yearly=res_kw_4125_pu

New Load.load_p1ulv319_2 conn=wye bus1=p1ulv319.2 kV=0.12 Vminpu=0.8 Vmaxpu=1.2 model=1 kW=10.625111429420313 kvar=1.3578067952177435 Phases=1 !yearly=res_kw_4125_pu

New Load.load_p1ulv320_1 conn=wye bus1=p1ulv320.1 kV=0.12 Vminpu=0.8 Vmaxpu=1.2 model=1 kW=2.2737611706456167 kvar=0.6388909620023266 Phases=1 !yearly=com_kw_2476_pu

New Load.load_p1ulv320_2 conn=wye bus1=p1ulv320.2 kV=0.12 Vminpu=0.8 Vmaxpu=1.2 model=1 kW=2.2737611706456167 kvar=0.6388909620023266 Phases=1 !yearly=com_kw_2476_pu

New Load.load_p1ulv325_1 conn=wye bus1=p1ulv325.1 kV=0.12 Vminpu=0.8 Vmaxpu=1.2 model=1 kW=3.772462172331776 kvar=1.0755387210843397 Phases=1 !yearly=com_kw_29082_pu

New Load.load_p1ulv325_2 conn=wye bus1=p1ulv325.2 kV=0.12 Vminpu=0.8 Vmaxpu=1.2 model=1 kW=3.772462172331776 kvar=1.0755387210843397 Phases=1 !yearly=com_kw_29082_pu

New Load.load_p1ulv326_1 conn=wye bus1=p1ulv326.1 kV=0.12 Vminpu=0.8 Vmaxpu=1.2 model=1 kW=2.499057743464556 kvar=0.3373788699823939 Phases=1 !yearly=com_kw_41529_pu

New Load.load_p1ulv326_2 conn=wye bus1=p1ulv326.2 kV=0.12 Vminpu=0.8 Vmaxpu=1.2 model=1 kW=2.499057743464556 kvar=0.3373788699823939 Phases=1 !yearly=com_kw_41529_pu

New Load.load_p1ulv327_1 conn=wye bus1=p1ulv327.1 kV=0.12 Vminpu=0.8 Vmaxpu=1.2 model=1 kW=3.443583112785006 kvar=0.2576306570382033 Phases=1 !yearly=com_kw_32163_pu

New Load.load_p1ulv327_2 conn=wye bus1=p1ulv327.2 kV=0.12 Vminpu=0.8 Vmaxpu=1.2 model=1 kW=3.443583112785006 kvar=0.2576306570382033 Phases=1 !yearly=com_kw_32163_pu

New Load.load_p1ulv329_1 conn=wye bus1=p1ulv329.1 kV=0.12 Vminpu=0.8 Vmaxpu=1.2 model=1 kW=4.930856113906041 kvar=1.339669833856626 Phases=1 !yearly=res_kw_1974_pu

New Load.load_p1ulv329_2 conn=wye bus1=p1ulv329.2 kV=0.12 Vminpu=0.8 Vmaxpu=1.2 model=1 kW=4.930856113906041 kvar=1.339669833856626 Phases=1 !yearly=res_kw_1974_pu

New Load.load_p1ulv330_1 conn=wye bus1=p1ulv330.1 kV=0.12 Vminpu=0.8 Vmaxpu=1.2 model=1 kW=3.875608242018149 kvar=1.1961787734858456 Phases=1 !yearly=res_kw_10857_pu

New Load.load_p1ulv330_2 conn=wye bus1=p1ulv330.2 kV=0.12 Vminpu=0.8 Vmaxpu=1.2 model=1 kW=3.875608242018149 kvar=1.1961787734858456 Phases=1 !yearly=res_kw_10857_pu

New Load.load_p1ulv331_1 conn=wye bus1=p1ulv330.1 kV=0.12 Vminpu=0.8 Vmaxpu=1.2 model=1 kW=3.2926352778956662 kvar=1.3553361300550886 Phases=1 !yearly=res_kw_1797_pu

New Load.load_p1ulv331_2 conn=wye bus1=p1ulv330.2 kV=0.12 Vminpu=0.8 Vmaxpu=1.2 model=1 kW=3.2926352778956662 kvar=1.3553361300550886 Phases=1 !yearly=res_kw_1797_pu

New Load.load_p1ulv382_1 conn=wye bus1=p1ulv382.1 kV=0.12 Vminpu=0.8 Vmaxpu=1.2 model=1 kW=6.852221562262988 kvar=0.8936647554653453 Phases=1 !yearly=com_kw_31664_pu

New Load.load_p1ulv382_2 conn=wye bus1=p1ulv382.2 kV=0.12 Vminpu=0.8 Vmaxpu=1.2 model=1 kW=6.852221562262988 kvar=0.8936647554653453 Phases=1 !yearly=com_kw_31664_pu

New Load.load_p1ulv383_1 conn=wye bus1=p1ulv383.1 kV=0.12 Vminpu=0.8 Vmaxpu=1.2 model=1 kW=3.1346325666136106 kvar=0.6634357360968534 Phases=1 !yearly=res_kw_9877_pu

New Load.load_p1ulv383_2 conn=wye bus1=p1ulv383.2 kV=0.12 Vminpu=0.8 Vmaxpu=1.2 model=1 kW=3.1346325666136106 kvar=0.6634357360968534 Phases=1 !yearly=res_kw_9877_pu

New Load.load_p1ulv502_1 conn=wye bus1=p1ulv502.1 kV=0.12 Vminpu=0.8 Vmaxpu=1.2 model=1 kW=7.195835684964307 kvar=1.2597917225698023 Phases=1 !yearly=com_kw_20676_pu

New Load.load_p1ulv502_2 conn=wye bus1=p1ulv502.2 kV=0.12 Vminpu=0.8 Vmaxpu=1.2 model=1 kW=7.195835684964307 kvar=1.2597917225698023 Phases=1 !yearly=com_kw_20676_pu

New Load.load_p1ulv511_1 conn=wye bus1=p1ulv511.1 kV=0.12 Vminpu=0.8 Vmaxpu=1.2 model=1 kW=6.49638086103876 kvar=1.3007189970473756 Phases=1 !yearly=com_kw_2538_pu

New Load.load_p1ulv511_2 conn=wye bus1=p1ulv511.2 kV=0.12 Vminpu=0.8 Vmaxpu=1.2 model=1 kW=6.49638086103876 kvar=1.3007189970473756 Phases=1 !yearly=com_kw_2538_pu

New Load.load_p1ulv525 conn=wye bus1=p1ulv525.1.2.3 kV=0.48 Vminpu=0.8 Vmaxpu=1.2 model=1 kW=29.39448799962287 kvar=7.088336904990842 Phases=3 !yearly=com_kw_8328_pu

New Load.load_p1umv6 conn=wye bus1=p1umv6.1.2.3 kV=12.47 Vminpu=0.8 Vmaxpu=1.2 model=1 kW=665.3301745919068 kvar=144.67724724872957 Phases=3 !yearly=com_kw_21258_pu

New Load.load_p1ulv554_1 conn=wye bus1=p1ulv554.1 kV=0.12 Vminpu=0.8 Vmaxpu=1.2 model=1 kW=3.9277939563345234 kvar=0.9919994573070189 Phases=1 !yearly=com_kw_31639_pu

New Load.load_p1ulv554_2 conn=wye bus1=p1ulv554.2 kV=0.12 Vminpu=0.8 Vmaxpu=1.2 model=1 kW=3.9277939563345234 kvar=0.9919994573070189 Phases=1 !yearly=com_kw_31639_pu

New Load.load_p1ulv559_1 conn=wye bus1=p1ulv559.1 kV=0.12 Vminpu=0.8 Vmaxpu=1.2 model=1 kW=6.762685564172624 kvar=2.7175951697927787 Phases=1 !yearly=res_kw_278_pu

New Load.load_p1ulv559_2 conn=wye bus1=p1ulv559.2 kV=0.12 Vminpu=0.8 Vmaxpu=1.2 model=1 kW=6.762685564172624 kvar=2.7175951697927787 Phases=1 !yearly=res_kw_278_pu

New Load.load_p1ulv560_1 conn=wye bus1=p1ulv560.1 kV=0.12 Vminpu=0.8 Vmaxpu=1.2 model=1 kW=5.678900054512627 kvar=0.2757046368675722 Phases=1 !yearly=res_kw_4488_pu

New Load.load_p1ulv560_2 conn=wye bus1=p1ulv560.2 kV=0.12 Vminpu=0.8 Vmaxpu=1.2 model=1 kW=5.678900054512627 kvar=0.2757046368675722 Phases=1 !yearly=res_kw_4488_pu

New Load.load_p1ulv582_1 conn=wye bus1=p1ulv582.1 kV=0.12 Vminpu=0.8 Vmaxpu=1.2 model=1 kW=15.445747588806455 kvar=1.4913986720628467 Phases=1 !yearly=com_kw_22725_pu

New Load.load_p1ulv582_2 conn=wye bus1=p1ulv582.2 kV=0.12 Vminpu=0.8 Vmaxpu=1.2 model=1 kW=15.445747588806455 kvar=1.4913986720628467 Phases=1 !yearly=com_kw_22725_pu

New Load.load_p1ulv584_1 conn=wye bus1=p1ulv584.1 kV=0.12 Vminpu=0.8 Vmaxpu=1.2 model=1 kW=10.164930840288298 kvar=1.6389594802005534 Phases=1 !yearly=com_kw_16041_pu

New Load.load_p1ulv584_2 conn=wye bus1=p1ulv584.2 kV=0.12 Vminpu=0.8 Vmaxpu=1.2 model=1 kW=10.164930840288298 kvar=1.6389594802005534 Phases=1 !yearly=com_kw_16041_pu

New Load.load_p1ulv585_1 conn=wye bus1=p1ulv585.1 kV=0.12 Vminpu=0.8 Vmaxpu=1.2 model=1 kW=2.2427189664810845 kvar=0.6160146168872371 Phases=1 !yearly=com_kw_16700_pu

New Load.load_p1ulv585_2 conn=wye bus1=p1ulv585.2 kV=0.12 Vminpu=0.8 Vmaxpu=1.2 model=1 kW=2.2427189664810845 kvar=0.6160146168872371 Phases=1 !yearly=com_kw_16700_pu

New Load.load_p1ulv650_1 conn=wye bus1=p1ulv650.1 kV=0.12 Vminpu=0.8 Vmaxpu=1.2 model=1 kW=1.72273381912598 kvar=0.4256508391341515 Phases=1 !yearly=com_kw_29184_pu

New Load.load_p1ulv650_2 conn=wye bus1=p1ulv650.2 kV=0.12 Vminpu=0.8 Vmaxpu=1.2 model=1 kW=1.72273381912598 kvar=0.4256508391341515 Phases=1 !yearly=com_kw_29184_pu

New Load.load_p1ulv651_1 conn=wye bus1=p1ulv651.1 kV=0.12 Vminpu=0.8 Vmaxpu=1.2 model=1 kW=3.299800530427192 kvar=0.3429945143852251 Phases=1 !yearly=com_kw_33365_pu

New Load.load_p1ulv651_2 conn=wye bus1=p1ulv651.2 kV=0.12 Vminpu=0.8 Vmaxpu=1.2 model=1 kW=3.299800530427192 kvar=0.3429945143852251 Phases=1 !yearly=com_kw_33365_pu

New Load.load_p1ulv652_1 conn=wye bus1=p1ulv383.1 kV=0.12 Vminpu=0.8 Vmaxpu=1.2 model=1 kW=5.2547905931434515 kvar=0.9341595961534626 Phases=1 !yearly=res_kw_4729_pu

New Load.load_p1ulv652_2 conn=wye bus1=p1ulv383.2 kV=0.12 Vminpu=0.8 Vmaxpu=1.2 model=1 kW=5.2547905931434515 kvar=0.9341595961534626 Phases=1 !yearly=res_kw_4729_pu

New Load.load_p1ulv653 conn=wye bus1=p1ulv653.1.2.3 kV=0.48 Vminpu=0.8 Vmaxpu=1.2 model=1 kW=53.09701812916814 kvar=16.74314380983815 Phases=3 !yearly=res_kw_9762_pu

New Load.load_p1ulv654_1 conn=wye bus1=p1ulv654.1 kV=0.12 Vminpu=0.8 Vmaxpu=1.2 model=1 kW=5.193650991228419 kvar=1.7053045316935516 Phases=1 !yearly=res_kw_8152_pu

New Load.load_p1ulv654_2 conn=wye bus1=p1ulv654.2 kV=0.12 Vminpu=0.8 Vmaxpu=1.2 model=1 kW=5.193650991228419 kvar=1.7053045316935516 Phases=1 !yearly=res_kw_8152_pu

New Load.load_p1ulv655_1 conn=wye bus1=p1ulv655.1 kV=0.12 Vminpu=0.8 Vmaxpu=1.2 model=1 kW=3.344567479254364 kvar=0.6658816257517379 Phases=1 !yearly=com_kw_16631_pu

New Load.load_p1ulv655_2 conn=wye bus1=p1ulv655.2 kV=0.12 Vminpu=0.8 Vmaxpu=1.2 model=1 kW=3.344567479254364 kvar=0.6658816257517379 Phases=1 !yearly=com_kw_16631_pu

New Load.load_p1ulv656_1 conn=wye bus1=p1ulv656.1 kV=0.12 Vminpu=0.8 Vmaxpu=1.2 model=1 kW=2.9264329962341185 kvar=1.3633013910451994 Phases=1 !yearly=res_kw_1058_pu

New Load.load_p1ulv656_2 conn=wye bus1=p1ulv656.2 kV=0.12 Vminpu=0.8 Vmaxpu=1.2 model=1 kW=2.9264329962341185 kvar=1.3633013910451994 Phases=1 !yearly=res_kw_1058_pu

New Load.load_p1ulv1569_1 conn=wye bus1=p1ulv1569.1 kV=0.12 Vminpu=0.8 Vmaxpu=1.2 model=1 kW=6.197662191161723 kvar=1.2522186639857216 Phases=1 !yearly=res_kw_163_pu

New Load.load_p1ulv1569_2 conn=wye bus1=p1ulv1569.2 kV=0.12 Vminpu=0.8 Vmaxpu=1.2 model=1 kW=6.197662191161723 kvar=1.2522186639857216 Phases=1 !yearly=res_kw_163_pu

New Load.load_p1ulv1570_1 conn=wye bus1=p1ulv1570.1 kV=0.12 Vminpu=0.8 Vmaxpu=1.2 model=1 kW=1.9397867132428528 kvar=0.843104849994377 Phases=1 !yearly=res_kw_4136_pu

New Load.load_p1ulv1570_2 conn=wye bus1=p1ulv1570.2 kV=0.12 Vminpu=0.8 Vmaxpu=1.2 model=1 kW=1.9397867132428528 kvar=0.843104849994377 Phases=1 !yearly=res_kw_4136_pu

New Load.load_p1ulv1571_1 conn=wye bus1=p1ulv1571.1 kV=0.12 Vminpu=0.8 Vmaxpu=1.2 model=1 kW=4.158557405971583 kvar=0.947020489180673 Phases=1 !yearly=com_kw_29242_pu

New Load.load_p1ulv1571_2 conn=wye bus1=p1ulv1571.2 kV=0.12 Vminpu=0.8 Vmaxpu=1.2 model=1 kW=4.158557405971583 kvar=0.947020489180673 Phases=1 !yearly=com_kw_29242_pu

New Load.load_p1ulv1572_1 conn=wye bus1=p1ulv1572.1 kV=0.12 Vminpu=0.8 Vmaxpu=1.2 model=1 kW=9.103331878369385 kvar=2.112168671814409 Phases=1 !yearly=com_kw_39258_pu

New Load.load_p1ulv1572_2 conn=wye bus1=p1ulv1572.2 kV=0.12 Vminpu=0.8 Vmaxpu=1.2 model=1 kW=9.103331878369385 kvar=2.112168671814409 Phases=1 !yearly=com_kw_39258_pu

New Load.load_p1ulv1573_1 conn=wye bus1=p1ulv1573.1 kV=0.12 Vminpu=0.8 Vmaxpu=1.2 model=1 kW=6.044228536536975 kvar=1.36590600324157 Phases=1 !yearly=com_kw_41364_pu

New Load.load_p1ulv1573_2 conn=wye bus1=p1ulv1573.2 kV=0.12 Vminpu=0.8 Vmaxpu=1.2 model=1 kW=6.044228536536975 kvar=1.36590600324157 Phases=1 !yearly=com_kw_41364_pu

New Load.load_p1ulv1574_1 conn=wye bus1=p1ulv1573.1 kV=0.12 Vminpu=0.8 Vmaxpu=1.2 model=1 kW=7.1376148650597635 kvar=1.4190920075159188 Phases=1 !yearly=res_kw_3179_pu

New Load.load_p1ulv1574_2 conn=wye bus1=p1ulv1573.2 kV=0.12 Vminpu=0.8 Vmaxpu=1.2 model=1 kW=7.1376148650597635 kvar=1.4190920075159188 Phases=1 !yearly=res_kw_3179_pu

New Load.load_p1ulv1575_1 conn=wye bus1=p1ulv1575.1 kV=0.12 Vminpu=0.8 Vmaxpu=1.2 model=1 kW=2.604395810763585 kvar=0.8624953636694483 Phases=1 !yearly=res_kw_6477_pu

New Load.load_p1ulv1575_2 conn=wye bus1=p1ulv1575.2 kV=0.12 Vminpu=0.8 Vmaxpu=1.2 model=1 kW=2.604395810763585 kvar=0.8624953636694483 Phases=1 !yearly=res_kw_6477_pu

New Load.load_p1ulv1576_1 conn=wye bus1=p1ulv1576.1 kV=0.12 Vminpu=0.8 Vmaxpu=1.2 model=1 kW=2.0191431035669187 kvar=0.3818764773978318 Phases=1 !yearly=com_kw_35553_pu

New Load.load_p1ulv1576_2 conn=wye bus1=p1ulv1576.2 kV=0.12 Vminpu=0.8 Vmaxpu=1.2 model=1 kW=2.0191431035669187 kvar=0.3818764773978318 Phases=1 !yearly=com_kw_35553_pu

New Load.load_p1ulv1577_1 conn=wye bus1=p1ulv1577.1 kV=0.12 Vminpu=0.8 Vmaxpu=1.2 model=1 kW=3.9214245773631164 kvar=0.9659940370547064 Phases=1 !yearly=com_kw_1647_pu

New Load.load_p1ulv1577_2 conn=wye bus1=p1ulv1577.2 kV=0.12 Vminpu=0.8 Vmaxpu=1.2 model=1 kW=3.9214245773631164 kvar=0.9659940370547064 Phases=1 !yearly=com_kw_1647_pu

New Load.load_p1ulv1578_1 conn=wye bus1=p1ulv1577.1 kV=0.12 Vminpu=0.8 Vmaxpu=1.2 model=1 kW=2.0191431035669187 kvar=0.3818764773978318 Phases=1 !yearly=com_kw_35553_pu

New Load.load_p1ulv1578_2 conn=wye bus1=p1ulv1577.2 kV=0.12 Vminpu=0.8 Vmaxpu=1.2 model=1 kW=2.0191431035669187 kvar=0.3818764773978318 Phases=1 !yearly=com_kw_35553_pu

New Load.load_p1ulv1579_1 conn=wye bus1=p1ulv1579.1 kV=0.12 Vminpu=0.8 Vmaxpu=1.2 model=1 kW=1.839175601618853 kvar=0.4557221316666175 Phases=1 !yearly=com_kw_17204_pu

New Load.load_p1ulv1579_2 conn=wye bus1=p1ulv1579.2 kV=0.12 Vminpu=0.8 Vmaxpu=1.2 model=1 kW=1.839175601618853 kvar=0.4557221316666175 Phases=1 !yearly=com_kw_17204_pu

New Load.load_p1ulv1580_1 conn=wye bus1=p1ulv1580.1 kV=0.12 Vminpu=0.8 Vmaxpu=1.2 model=1 kW=6.625789834877447 kvar=1.7705314525486966 Phases=1 !yearly=res_kw_12108_pu

New Load.load_p1ulv1580_2 conn=wye bus1=p1ulv1580.2 kV=0.12 Vminpu=0.8 Vmaxpu=1.2 model=1 kW=6.625789834877447 kvar=1.7705314525486966 Phases=1 !yearly=res_kw_12108_pu

New Load.load_p1ulv1581_1 conn=wye bus1=p1ulv1581.1 kV=0.12 Vminpu=0.8 Vmaxpu=1.2 model=1 kW=6.504585200899067 kvar=1.1614896338945686 Phases=1 !yearly=res_kw_13528_pu

New Load.load_p1ulv1581_2 conn=wye bus1=p1ulv1581.2 kV=0.12 Vminpu=0.8 Vmaxpu=1.2 model=1 kW=6.504585200899067 kvar=1.1614896338945686 Phases=1 !yearly=res_kw_13528_pu

New Load.load_p1ulv1582_1 conn=wye bus1=p1ulv1582.1 kV=0.12 Vminpu=0.8 Vmaxpu=1.2 model=1 kW=3.1346325666136106 kvar=0.6634357360968534 Phases=1 !yearly=res_kw_9877_pu

New Load.load_p1ulv1582_2 conn=wye bus1=p1ulv1582.2 kV=0.12 Vminpu=0.8 Vmaxpu=1.2 model=1 kW=3.1346325666136106 kvar=0.6634357360968534 Phases=1 !yearly=res_kw_9877_pu

New Load.load_p1ulv1583_1 conn=wye bus1=p1ulv1575.1 kV=0.12 Vminpu=0.8 Vmaxpu=1.2 model=1 kW=2.4820522770729507 kvar=0.1125677048872814 Phases=1 !yearly=com_kw_21144_pu

New Load.load_p1ulv1583_2 conn=wye bus1=p1ulv1575.2 kV=0.12 Vminpu=0.8 Vmaxpu=1.2 model=1 kW=2.4820522770729507 kvar=0.1125677048872814 Phases=1 !yearly=com_kw_21144_pu

New Load.load_p1ulv1584_1 conn=wye bus1=p1ulv1584.1 kV=0.12 Vminpu=0.8 Vmaxpu=1.2 model=1 kW=11.833192950896713 kvar=1.0261472784856227 Phases=1 !yearly=res_kw_6923_pu

New Load.load_p1ulv1584_2 conn=wye bus1=p1ulv1584.2 kV=0.12 Vminpu=0.8 Vmaxpu=1.2 model=1 kW=11.833192950896713 kvar=1.0261472784856227 Phases=1 !yearly=res_kw_6923_pu

New Load.load_p1ulv1585_1 conn=wye bus1=p1ulv1580.1 kV=0.12 Vminpu=0.8 Vmaxpu=1.2 model=1 kW=8.912563053820602 kvar=0.5249399336059505 Phases=1 !yearly=res_kw_3580_pu

New Load.load_p1ulv1585_2 conn=wye bus1=p1ulv1580.2 kV=0.12 Vminpu=0.8 Vmaxpu=1.2 model=1 kW=8.912563053820602 kvar=0.5249399336059505 Phases=1 !yearly=res_kw_3580_pu

New Load.load_p1ulv1586_1 conn=wye bus1=p1ulv1586.1 kV=0.12 Vminpu=0.8 Vmaxpu=1.2 model=1 kW=9.848527726627342 kvar=1.979796131426657 Phases=1 !yearly=res_kw_7398_pu

New Load.load_p1ulv1586_2 conn=wye bus1=p1ulv1586.2 kV=0.12 Vminpu=0.8 Vmaxpu=1.2 model=1 kW=9.848527726627342 kvar=1.979796131426657 Phases=1 !yearly=res_kw_7398_pu

New Load.load_p1ulv1587_1 conn=wye bus1=p1ulv1587.1 kV=0.12 Vminpu=0.8 Vmaxpu=1.2 model=1 kW=8.159612304605124 kvar=2.983269543680009 Phases=1 !yearly=res_kw_3419_pu

New Load.load_p1ulv1587_2 conn=wye bus1=p1ulv1587.2 kV=0.12 Vminpu=0.8 Vmaxpu=1.2 model=1 kW=8.159612304605124 kvar=2.983269543680009 Phases=1 !yearly=res_kw_3419_pu

New Load.load_p1ulv1588_1 conn=wye bus1=p1ulv1588.1 kV=0.12 Vminpu=0.8 Vmaxpu=1.2 model=1 kW=6.948754098477643 kvar=1.3029845217151799 Phases=1 !yearly=com_kw_31775_pu

New Load.load_p1ulv1588_2 conn=wye bus1=p1ulv1588.2 kV=0.12 Vminpu=0.8 Vmaxpu=1.2 model=1 kW=6.948754098477643 kvar=1.3029845217151799 Phases=1 !yearly=com_kw_31775_pu

New Load.load_p1ulv1589 conn=wye bus1=p1ulv1589.1.2.3 kV=0.48 Vminpu=0.8 Vmaxpu=1.2 model=1 kW=23.597798738075703 kvar=2.390125006929311 Phases=3 !yearly=com_kw_31842_pu

New Load.load_p1ulv1590_1 conn=wye bus1=p1ulv1590.1 kV=0.12 Vminpu=0.8 Vmaxpu=1.2 model=1 kW=2.1976836424562762 kvar=0.1051220183522544 Phases=1 !yearly=com_kw_17157_pu

New Load.load_p1ulv1590_2 conn=wye bus1=p1ulv1590.2 kV=0.12 Vminpu=0.8 Vmaxpu=1.2 model=1 kW=2.1976836424562762 kvar=0.1051220183522544 Phases=1 !yearly=com_kw_17157_pu

New Load.load_p1ulv1591_1 conn=wye bus1=p1ulv1591.1 kV=0.12 Vminpu=0.8 Vmaxpu=1.2 model=1 kW=2.7595356845335988 kvar=1.2415476755284698 Phases=1 !yearly=res_kw_14782_pu

New Load.load_p1ulv1591_2 conn=wye bus1=p1ulv1591.2 kV=0.12 Vminpu=0.8 Vmaxpu=1.2 model=1 kW=2.7595356845335988 kvar=1.2415476755284698 Phases=1 !yearly=res_kw_14782_pu

New Load.load_p1ulv1592_1 conn=wye bus1=p1ulv1592.1 kV=0.12 Vminpu=0.8 Vmaxpu=1.2 model=1 kW=3.587045329539647 kvar=1.3923216471043 Phases=1 !yearly=com_kw_16138_pu

New Load.load_p1ulv1592_2 conn=wye bus1=p1ulv1592.2 kV=0.12 Vminpu=0.8 Vmaxpu=1.2 model=1 kW=3.587045329539647 kvar=1.3923216471043 Phases=1 !yearly=com_kw_16138_pu

New Load.load_p1ulv1593_1 conn=wye bus1=p1ulv1592.1 kV=0.12 Vminpu=0.8 Vmaxpu=1.2 model=1 kW=2.506777523971763 kvar=0.6728964006005869 Phases=1 !yearly=com_kw_21014_pu

New Load.load_p1ulv1593_2 conn=wye bus1=p1ulv1592.2 kV=0.12 Vminpu=0.8 Vmaxpu=1.2 model=1 kW=2.506777523971763 kvar=0.6728964006005869 Phases=1 !yearly=com_kw_21014_pu

New Load.load_p1ulv1594_1 conn=wye bus1=p1ulv1591.1 kV=0.12 Vminpu=0.8 Vmaxpu=1.2 model=1 kW=2.744817551975608 kvar=0.5278732127249295 Phases=1 !yearly=com_kw_29069_pu

New Load.load_p1ulv1594_2 conn=wye bus1=p1ulv1591.2 kV=0.12 Vminpu=0.8 Vmaxpu=1.2 model=1 kW=2.744817551975608 kvar=0.5278732127249295 Phases=1 !yearly=com_kw_29069_pu

New Load.load_p1ulv1595_1 conn=wye bus1=p1ulv1595.1 kV=0.12 Vminpu=0.8 Vmaxpu=1.2 model=1 kW=4.88875250566531 kvar=1.3533612733571443 Phases=1 !yearly=res_kw_11366_pu

New Load.load_p1ulv1595_2 conn=wye bus1=p1ulv1595.2 kV=0.12 Vminpu=0.8 Vmaxpu=1.2 model=1 kW=4.88875250566531 kvar=1.3533612733571443 Phases=1 !yearly=res_kw_11366_pu

New Load.load_p1ulv1596_1 conn=wye bus1=p1ulv1596.1 kV=0.12 Vminpu=0.8 Vmaxpu=1.2 model=1 kW=2.359977223622412 kvar=0.2969054470018346 Phases=1 !yearly=com_kw_33783_pu

New Load.load_p1ulv1596_2 conn=wye bus1=p1ulv1596.2 kV=0.12 Vminpu=0.8 Vmaxpu=1.2 model=1 kW=2.359977223622412 kvar=0.2969054470018346 Phases=1 !yearly=com_kw_33783_pu

New Load.load_p1ulv1597_1 conn=wye bus1=p1ulv1596.1 kV=0.12 Vminpu=0.8 Vmaxpu=1.2 model=1 kW=5.12279426874869 kvar=1.4312831856323216 Phases=1 !yearly=com_kw_39311_pu

New Load.load_p1ulv1597_2 conn=wye bus1=p1ulv1596.2 kV=0.12 Vminpu=0.8 Vmaxpu=1.2 model=1 kW=5.12279426874869 kvar=1.4312831856323216 Phases=1 !yearly=com_kw_39311_pu

New Load.load_p1ulv1598 conn=wye bus1=p1ulv1598.1.2.3 kV=0.48 Vminpu=0.8 Vmaxpu=1.2 model=1 kW=28.84030494203324 kvar=10.72668072520526 Phases=3 !yearly=res_kw_4833_pu

New Load.load_p1ulv1599 conn=wye bus1=p1ulv1599.1.2.3 kV=0.48 Vminpu=0.8 Vmaxpu=1.2 model=1 kW=84.63202669349879 kvar=36.46542938417373 Phases=3 !yearly=res_kw_7221_pu

New Load.load_p1ulv1600_1 conn=wye bus1=p1ulv1600.1 kV=0.12 Vminpu=0.8 Vmaxpu=1.2 model=1 kW=9.310725114958206 kvar=2.1225858823805104 Phases=1 !yearly=com_kw_8483_pu

New Load.load_p1ulv1600_2 conn=wye bus1=p1ulv1600.2 kV=0.12 Vminpu=0.8 Vmaxpu=1.2 model=1 kW=9.310725114958206 kvar=2.1225858823805104 Phases=1 !yearly=com_kw_8483_pu

New Load.load_p1ulv1601 conn=wye bus1=p1ulv1601.1.2.3 kV=0.48 Vminpu=0.8 Vmaxpu=1.2 model=1 kW=45.44108796740397 kvar=9.517075771056998 Phases=3 !yearly=res_kw_2981_pu

New Load.load_p1ulv1602 conn=wye bus1=p1ulv1602.1.2.3 kV=0.48 Vminpu=0.8 Vmaxpu=1.2 model=1 kW=108.94000209707674 kvar=24.083578757070494 Phases=3 !yearly=res_kw_2294_pu

New Load.load_p1ulv1603_1 conn=wye bus1=p1ulv1603.1 kV=0.12 Vminpu=0.8 Vmaxpu=1.2 model=1 kW=2.543024231882563 kvar=0.8558540215997917 Phases=1 !yearly=res_kw_10085_pu

New Load.load_p1ulv1603_2 conn=wye bus1=p1ulv1603.2 kV=0.12 Vminpu=0.8 Vmaxpu=1.2 model=1 kW=2.543024231882563 kvar=0.8558540215997917 Phases=1 !yearly=res_kw_10085_pu

New Load.load_p1ulv1604_1 conn=wye bus1=p1ulv1604.1 kV=0.12 Vminpu=0.8 Vmaxpu=1.2 model=1 kW=2.4552078558350856 kvar=0.7611034547548989 Phases=1 !yearly=com_kw_16496_pu

New Load.load_p1ulv1604_2 conn=wye bus1=p1ulv1604.2 kV=0.12 Vminpu=0.8 Vmaxpu=1.2 model=1 kW=2.4552078558350856 kvar=0.7611034547548989 Phases=1 !yearly=com_kw_16496_pu

New Load.load_p1ulv1605_1 conn=wye bus1=p1ulv1605.1 kV=0.12 Vminpu=0.8 Vmaxpu=1.2 model=1 kW=3.773946842839208 kvar=0.7251264687550403 Phases=1 !yearly=com_kw_32056_pu

New Load.load_p1ulv1605_2 conn=wye bus1=p1ulv1605.2 kV=0.12 Vminpu=0.8 Vmaxpu=1.2 model=1 kW=3.773946842839208 kvar=0.7251264687550403 Phases=1 !yearly=com_kw_32056_pu

New Load.load_p1ulv1606_1 conn=wye bus1=p1ulv1606.1 kV=0.12 Vminpu=0.8 Vmaxpu=1.2 model=1 kW=7.834276924530485 kvar=0.4502196256817575 Phases=1 !yearly=com_kw_34526_pu

New Load.load_p1ulv1606_2 conn=wye bus1=p1ulv1606.2 kV=0.12 Vminpu=0.8 Vmaxpu=1.2 model=1 kW=7.834276924530485 kvar=0.4502196256817575 Phases=1 !yearly=com_kw_34526_pu
