New Load.load_p1ulv7_1 conn=wye bus1=p1ulv7.1 kV=0.12 Vminpu=0.8 Vmaxpu=1.2 model=1 kW=6.980390038243813 kvar=1.273630209379575 Phases=1 !yearly=res_kw_14502_pu

New Load.load_p1ulv7_2 conn=wye bus1=p1ulv7.2 kV=0.12 Vminpu=0.8 Vmaxpu=1.2 model=1 kW=6.980390038243813 kvar=1.273630209379575 Phases=1 !yearly=res_kw_14502_pu

New Load.load_p1ulv8_1 conn=wye bus1=p1ulv8.1 kV=0.12 Vminpu=0.8 Vmaxpu=1.2 model=1 kW=1.3269258272514293 kvar=0.5426221252724376 Phases=1 !yearly=res_kw_11954_pu

New Load.load_p1ulv8_2 conn=wye bus1=p1ulv8.2 kV=0.12 Vminpu=0.8 Vmaxpu=1.2 model=1 kW=1.3269258272514293 kvar=0.5426221252724376 Phases=1 !yearly=res_kw_11954_pu

New Load.load_p1ulv11_1 conn=wye bus1=p1ulv11.1 kV=0.12 Vminpu=0.8 Vmaxpu=1.2 model=1 kW=3.5598007643941627 kvar=0.8037734238764351 Phases=1 !yearly=res_kw_4421_pu

New Load.load_p1ulv11_2 conn=wye bus1=p1ulv11.2 kV=0.12 Vminpu=0.8 Vmaxpu=1.2 model=1 kW=3.5598007643941627 kvar=0.8037734238764351 Phases=1 !yearly=res_kw_4421_pu

New Load.load_p1ulv12 conn=wye bus1=p1ulv12.1.2.3 kV=0.48 Vminpu=0.8 Vmaxpu=1.2 model=1 kW=158.23093559981206 kvar=47.45470176870466 Phases=3 !yearly=com_kw_2138_pu

New Load.load_p1ulv14_1 conn=wye bus1=p1ulv14.1 kV=0.12 Vminpu=0.8 Vmaxpu=1.2 model=1 kW=1.7809157638868618 kvar=0.6101895343890995 Phases=1 !yearly=res_kw_6679_pu

New Load.load_p1ulv14_2 conn=wye bus1=p1ulv14.2 kV=0.12 Vminpu=0.8 Vmaxpu=1.2 model=1 kW=1.7809157638868618 kvar=0.6101895343890995 Phases=1 !yearly=res_kw_6679_pu

New Load.load_p1ulv15_1 conn=wye bus1=p1ulv15.1 kV=0.12 Vminpu=0.8 Vmaxpu=1.2 model=1 kW=2.0052757727111112 kvar=0.4127143879372469 Phases=1 !yearly=res_kw_1834_pu

New Load.load_p1ulv15_2 conn=wye bus1=p1ulv15.2 kV=0.12 Vminpu=0.8 Vmaxpu=1.2 model=1 kW=2.0052757727111112 kvar=0.4127143879372469 Phases=1 !yearly=res_kw_1834_pu

New Load.load_p1ulv16_1 conn=wye bus1=p1ulv16.1 kV=0.12 Vminpu=0.8 Vmaxpu=1.2 model=1 kW=6.270672844486887 kvar=1.4768901344545 Phases=1 !yearly=res_kw_12968_pu

New Load.load_p1ulv16_2 conn=wye bus1=p1ulv16.2 kV=0.12 Vminpu=0.8 Vmaxpu=1.2 model=1 kW=6.270672844486887 kvar=1.4768901344545 Phases=1 !yearly=res_kw_12968_pu

New Load.load_p1ulv17_1 conn=wye bus1=p1ulv17.1 kV=0.12 Vminpu=0.8 Vmaxpu=1.2 model=1 kW=13.906990262409657 kvar=3.010981849054546 Phases=1 !yearly=res_kw_12317_pu

New Load.load_p1ulv17_2 conn=wye bus1=p1ulv17.2 kV=0.12 Vminpu=0.8 Vmaxpu=1.2 model=1 kW=13.906990262409657 kvar=3.010981849054546 Phases=1 !yearly=res_kw_12317_pu

New Load.load_p1ulv18_1 conn=wye bus1=p1ulv18.1 kV=0.12 Vminpu=0.8 Vmaxpu=1.2 model=1 kW=2.297832728168154 kvar=0.6109723215697453 Phases=1 !yearly=res_kw_7568_pu

New Load.load_p1ulv18_2 conn=wye bus1=p1ulv18.2 kV=0.12 Vminpu=0.8 Vmaxpu=1.2 model=1 kW=2.297832728168154 kvar=0.6109723215697453 Phases=1 !yearly=res_kw_7568_pu

New Load.load_p1ulv70_1 conn=wye bus1=p1ulv70.1 kV=0.12 Vminpu=0.8 Vmaxpu=1.2 model=1 kW=6.8595627017486285 kvar=1.4384908458119905 Phases=1 !yearly=res_kw_8033_pu

New Load.load_p1ulv70_2 conn=wye bus1=p1ulv70.2 kV=0.12 Vminpu=0.8 Vmaxpu=1.2 model=1 kW=6.8595627017486285 kvar=1.4384908458119905 Phases=1 !yearly=res_kw_8033_pu

New Load.load_p1ulv71_1 conn=wye bus1=p1ulv71.1 kV=0.12 Vminpu=0.8 Vmaxpu=1.2 model=1 kW=9.007422020562664 kvar=2.3575454836243637 Phases=1 !yearly=res_kw_4173_pu

New Load.load_p1ulv71_2 conn=wye bus1=p1ulv71.2 kV=0.12 Vminpu=0.8 Vmaxpu=1.2 model=1 kW=9.007422020562664 kvar=2.3575454836243637 Phases=1 !yearly=res_kw_4173_pu

New Load.load_p1ulv72_1 conn=wye bus1=p1ulv71.1 kV=0.12 Vminpu=0.8 Vmaxpu=1.2 model=1 kW=8.939090640659826 kvar=3.382948805918913 Phases=1 !yearly=res_kw_14120_pu

New Load.load_p1ulv72_2 conn=wye bus1=p1ulv71.2 kV=0.12 Vminpu=0.8 Vmaxpu=1.2 model=1 kW=8.939090640659826 kvar=3.382948805918913 Phases=1 !yearly=res_kw_14120_pu

New Load.load_p1ulv73_1 conn=wye bus1=p1ulv73.1 kV=0.12 Vminpu=0.8 Vmaxpu=1.2 model=1 kW=22.349303015372342 kvar=3.1491348605446206 Phases=1 !yearly=res_kw_8528_pu

New Load.load_p1ulv73_2 conn=wye bus1=p1ulv73.2 kV=0.12 Vminpu=0.8 Vmaxpu=1.2 model=1 kW=22.349303015372342 kvar=3.1491348605446206 Phases=1 !yearly=res_kw_8528_pu

New Load.load_p1ulv74_1 conn=wye bus1=p1ulv74.1 kV=0.12 Vminpu=0.8 Vmaxpu=1.2 model=1 kW=10.509020108523046 kvar=1.6522347064707315 Phases=1 !yearly=res_kw_9261_pu

New Load.load_p1ulv74_2 conn=wye bus1=p1ulv74.2 kV=0.12 Vminpu=0.8 Vmaxpu=1.2 model=1 kW=10.509020108523046 kvar=1.6522347064707315 Phases=1 !yearly=res_kw_9261_pu

New Load.load_p1ulv182_1 conn=wye bus1=p1ulv182.1 kV=0.12 Vminpu=0.8 Vmaxpu=1.2 model=1 kW=1.7457942211533133 kvar=0.8784341351558463 Phases=1 !yearly=res_kw_14475_pu

New Load.load_p1ulv182_2 conn=wye bus1=p1ulv182.2 kV=0.12 Vminpu=0.8 Vmaxpu=1.2 model=1 kW=1.7457942211533133 kvar=0.8784341351558463 Phases=1 !yearly=res_kw_14475_pu

New Load.load_p1ulv183_1 conn=wye bus1=p1ulv183.1 kV=0.12 Vminpu=0.8 Vmaxpu=1.2 model=1 kW=1.3671627998068583 kvar=0.907880160844601 Phases=1 !yearly=res_kw_5809_pu

New Load.load_p1ulv183_2 conn=wye bus1=p1ulv183.2 kV=0.12 Vminpu=0.8 Vmaxpu=1.2 model=1 kW=1.3671627998068583 kvar=0.907880160844601 Phases=1 !yearly=res_kw_5809_pu

New Load.load_p1ulv184_1 conn=wye bus1=p1ulv184.1 kV=0.12 Vminpu=0.8 Vmaxpu=1.2 model=1 kW=6.580529910152944 kvar=0.3492768846801997 Phases=1 !yearly=res_kw_8366_pu

New Load.load_p1ulv184_2 conn=wye bus1=p1ulv184.2 kV=0.12 Vminpu=0.8 Vmaxpu=1.2 model=1 kW=6.580529910152944 kvar=0.3492768846801997 Phases=1 !yearly=res_kw_8366_pu

New Load.load_p1ulv185_1 conn=wye bus1=p1ulv185.1 kV=0.12 Vminpu=0.8 Vmaxpu=1.2 model=1 kW=2.991460128778357 kvar=1.131425031283733 Phases=1 !yearly=res_kw_7337_pu

New Load.load_p1ulv185_2 conn=wye bus1=p1ulv185.2 kV=0.12 Vminpu=0.8 Vmaxpu=1.2 model=1 kW=2.991460128778357 kvar=1.131425031283733 Phases=1 !yearly=res_kw_7337_pu

New Load.load_p1ulv186_1 conn=wye bus1=p1ulv185.1 kV=0.12 Vminpu=0.8 Vmaxpu=1.2 model=1 kW=2.383812527298834 kvar=0.7249515140736078 Phases=1 !yearly=res_kw_11737_pu

New Load.load_p1ulv186_2 conn=wye bus1=p1ulv185.2 kV=0.12 Vminpu=0.8 Vmaxpu=1.2 model=1 kW=2.383812527298834 kvar=0.7249515140736078 Phases=1 !yearly=res_kw_11737_pu

New Load.load_p1ulv187_1 conn=wye bus1=p1ulv187.1 kV=0.12 Vminpu=0.8 Vmaxpu=1.2 model=1 kW=4.838525071303998 kvar=0.6392471611694661 Phases=1 !yearly=res_kw_2042_pu

New Load.load_p1ulv187_2 conn=wye bus1=p1ulv187.2 kV=0.12 Vminpu=0.8 Vmaxpu=1.2 model=1 kW=4.838525071303998 kvar=0.6392471611694661 Phases=1 !yearly=res_kw_2042_pu

New Load.load_p1ulv188_1 conn=wye bus1=p1ulv188.1 kV=0.12 Vminpu=0.8 Vmaxpu=1.2 model=1 kW=12.068853305300843 kvar=0.4255339149672576 Phases=1 !yearly=res_kw_6920_pu

New Load.load_p1ulv188_2 conn=wye bus1=p1ulv188.2 kV=0.12 Vminpu=0.8 Vmaxpu=1.2 model=1 kW=12.068853305300843 kvar=0.4255339149672576 Phases=1 !yearly=res_kw_6920_pu

New Load.load_p1ulv189_1 conn=wye bus1=p1ulv189.1 kV=0.12 Vminpu=0.8 Vmaxpu=1.2 model=1 kW=1.3510125413548424 kvar=0.5621017434083633 Phases=1 !yearly=res_kw_6051_pu

New Load.load_p1ulv189_2 conn=wye bus1=p1ulv189.2 kV=0.12 Vminpu=0.8 Vmaxpu=1.2 model=1 kW=1.3510125413548424 kvar=0.5621017434083633 Phases=1 !yearly=res_kw_6051_pu

New Load.load_p1ulv190_1 conn=wye bus1=p1ulv189.1 kV=0.12 Vminpu=0.8 Vmaxpu=1.2 model=1 kW=3.3480679486659737 kvar=0.1241770602848328 Phases=1 !yearly=res_kw_3437_pu

New Load.load_p1ulv190_2 conn=wye bus1=p1ulv189.2 kV=0.12 Vminpu=0.8 Vmaxpu=1.2 model=1 kW=3.3480679486659737 kvar=0.1241770602848328 Phases=1 !yearly=res_kw_3437_pu

New Load.load_p1ulv191_1 conn=wye bus1=p1ulv191.1 kV=0.12 Vminpu=0.8 Vmaxpu=1.2 model=1 kW=1.6756304436316105 kvar=0.651752290570944 Phases=1 !yearly=res_kw_14757_pu

New Load.load_p1ulv191_2 conn=wye bus1=p1ulv191.2 kV=0.12 Vminpu=0.8 Vmaxpu=1.2 model=1 kW=1.6756304436316105 kvar=0.651752290570944 Phases=1 !yearly=res_kw_14757_pu

New Load.load_p1ulv192_1 conn=wye bus1=p1ulv192.1 kV=0.12 Vminpu=0.8 Vmaxpu=1.2 model=1 kW=4.481453129484394 kvar=0.7821430978877041 Phases=1 !yearly=res_kw_12412_pu

New Load.load_p1ulv192_2 conn=wye bus1=p1ulv192.2 kV=0.12 Vminpu=0.8 Vmaxpu=1.2 model=1 kW=4.481453129484394 kvar=0.7821430978877041 Phases=1 !yearly=res_kw_12412_pu

New Load.load_p1ulv193_1 conn=wye bus1=p1ulv193.1 kV=0.12 Vminpu=0.8 Vmaxpu=1.2 model=1 kW=3.2926352778956662 kvar=1.3553361300550886 Phases=1 !yearly=res_kw_1797_pu

New Load.load_p1ulv193_2 conn=wye bus1=p1ulv193.2 kV=0.12 Vminpu=0.8 Vmaxpu=1.2 model=1 kW=3.2926352778956662 kvar=1.3553361300550886 Phases=1 !yearly=res_kw_1797_pu

New Load.load_p1ulv194_1 conn=wye bus1=p1ulv194.1 kV=0.12 Vminpu=0.8 Vmaxpu=1.2 model=1 kW=4.174434191547281 kvar=0.8828950767431165 Phases=1 !yearly=res_kw_10971_pu

New Load.load_p1ulv194_2 conn=wye bus1=p1ulv194.2 kV=0.12 Vminpu=0.8 Vmaxpu=1.2 model=1 kW=4.174434191547281 kvar=0.8828950767431165 Phases=1 !yearly=res_kw_10971_pu

New Load.load_p1ulv195_1 conn=wye bus1=p1ulv195.1 kV=0.12 Vminpu=0.8 Vmaxpu=1.2 model=1 kW=2.4314632561383354 kvar=0.8057714419020039 Phases=1 !yearly=res_kw_12617_pu

New Load.load_p1ulv195_2 conn=wye bus1=p1ulv195.2 kV=0.12 Vminpu=0.8 Vmaxpu=1.2 model=1 kW=2.4314632561383354 kvar=0.8057714419020039 Phases=1 !yearly=res_kw_12617_pu

New Load.load_p1ulv196_1 conn=wye bus1=p1ulv196.1 kV=0.12 Vminpu=0.8 Vmaxpu=1.2 model=1 kW=4.450398798157845 kvar=0.11066409526699514 Phases=1 !yearly=res_kw_2418_pu

New Load.load_p1ulv196_2 conn=wye bus1=p1ulv196.2 kV=0.12 Vminpu=0.8 Vmaxpu=1.2 model=1 kW=4.450398798157845 kvar=0.11066409526699514 Phases=1 !yearly=res_kw_2418_pu

New Load.load_p1ulv197_1 conn=wye bus1=p1ulv197.1 kV=0.12 Vminpu=0.8 Vmaxpu=1.2 model=1 kW=2.7943609059660943 kvar=0.8824322096654456 Phases=1 !yearly=res_kw_3629_pu

New Load.load_p1ulv197_2 conn=wye bus1=p1ulv197.2 kV=0.12 Vminpu=0.8 Vmaxpu=1.2 model=1 kW=2.7943609059660943 kvar=0.8824322096654456 Phases=1 !yearly=res_kw_3629_pu

New Load.load_p1ulv198_1 conn=wye bus1=p1ulv198.1 kV=0.12 Vminpu=0.8 Vmaxpu=1.2 model=1 kW=1.7772343659192216 kvar=0.5892626614885013 Phases=1 !yearly=res_kw_9512_pu

New Load.load_p1ulv198_2 conn=wye bus1=p1ulv198.2 kV=0.12 Vminpu=0.8 Vmaxpu=1.2 model=1 kW=1.7772343659192216 kvar=0.5892626614885013 Phases=1 !yearly=res_kw_9512_pu

New Load.load_p1ulv199_1 conn=wye bus1=p1ulv198.1 kV=0.12 Vminpu=0.8 Vmaxpu=1.2 model=1 kW=3.436124603620977 kvar=0.16563474326713715 Phases=1 !yearly=res_kw_3092_pu

New Load.load_p1ulv199_2 conn=wye bus1=p1ulv198.2 kV=0.12 Vminpu=0.8 Vmaxpu=1.2 model=1 kW=3.436124603620977 kvar=0.16563474326713715 Phases=1 !yearly=res_kw_3092_pu

New Load.load_p1ulv200_1 conn=wye bus1=p1ulv200.1 kV=0.12 Vminpu=0.8 Vmaxpu=1.2 model=1 kW=2.438316346451239 kvar=0.6915244213249778 Phases=1 !yearly=res_kw_1109_pu

New Load.load_p1ulv200_2 conn=wye bus1=p1ulv200.2 kV=0.12 Vminpu=0.8 Vmaxpu=1.2 model=1 kW=2.438316346451239 kvar=0.6915244213249778 Phases=1 !yearly=res_kw_1109_pu

New Load.load_p1ulv201_1 conn=wye bus1=p1ulv201.1 kV=0.12 Vminpu=0.8 Vmaxpu=1.2 model=1 kW=4.307247144150686 kvar=0.17783357819798717 Phases=1 !yearly=res_kw_1150_pu

New Load.load_p1ulv201_2 conn=wye bus1=p1ulv201.2 kV=0.12 Vminpu=0.8 Vmaxpu=1.2 model=1 kW=4.307247144150686 kvar=0.17783357819798717 Phases=1 !yearly=res_kw_1150_pu

New Load.load_p1ulv202_1 conn=wye bus1=p1ulv202.1 kV=0.12 Vminpu=0.8 Vmaxpu=1.2 model=1 kW=3.046503930015547 kvar=1.3063805977843779 Phases=1 !yearly=res_kw_7171_pu

New Load.load_p1ulv202_2 conn=wye bus1=p1ulv202.2 kV=0.12 Vminpu=0.8 Vmaxpu=1.2 model=1 kW=3.046503930015547 kvar=1.3063805977843779 Phases=1 !yearly=res_kw_7171_pu

New Load.load_p1ulv203_1 conn=wye bus1=p1ulv203.1 kV=0.12 Vminpu=0.8 Vmaxpu=1.2 model=1 kW=1.7772343659192216 kvar=0.5892626614885013 Phases=1 !yearly=res_kw_9512_pu

New Load.load_p1ulv203_2 conn=wye bus1=p1ulv203.2 kV=0.12 Vminpu=0.8 Vmaxpu=1.2 model=1 kW=1.7772343659192216 kvar=0.5892626614885013 Phases=1 !yearly=res_kw_9512_pu

New Load.load_p1ulv204_1 conn=wye bus1=p1ulv204.1 kV=0.12 Vminpu=0.8 Vmaxpu=1.2 model=1 kW=4.4802416173061195 kvar=0.16224545041944255 Phases=1 !yearly=res_kw_836_pu

New Load.load_p1ulv204_2 conn=wye bus1=p1ulv204.2 kV=0.12 Vminpu=0.8 Vmaxpu=1.2 model=1 kW=4.4802416173061195 kvar=0.16224545041944255 Phases=1 !yearly=res_kw_836_pu

New Load.load_p1ulv205_1 conn=wye bus1=p1ulv204.1 kV=0.12 Vminpu=0.8 Vmaxpu=1.2 model=1 kW=1.9920550244580673 kvar=1.016709072862991 Phases=1 !yearly=res_kw_11756_pu

New Load.load_p1ulv205_2 conn=wye bus1=p1ulv204.2 kV=0.12 Vminpu=0.8 Vmaxpu=1.2 model=1 kW=1.9920550244580673 kvar=1.016709072862991 Phases=1 !yearly=res_kw_11756_pu

New Load.load_p1ulv206_1 conn=wye bus1=p1ulv206.1 kV=0.12 Vminpu=0.8 Vmaxpu=1.2 model=1 kW=2.4622944887503224 kvar=0.10483650830237357 Phases=1 !yearly=res_kw_14952_pu

New Load.load_p1ulv206_2 conn=wye bus1=p1ulv206.2 kV=0.12 Vminpu=0.8 Vmaxpu=1.2 model=1 kW=2.4622944887503224 kvar=0.10483650830237357 Phases=1 !yearly=res_kw_14952_pu

New Load.load_p1ulv207_1 conn=wye bus1=p1ulv207.1 kV=0.12 Vminpu=0.8 Vmaxpu=1.2 model=1 kW=2.524011463187128 kvar=0.7498872254128004 Phases=1 !yearly=res_kw_5103_pu

New Load.load_p1ulv207_2 conn=wye bus1=p1ulv207.2 kV=0.12 Vminpu=0.8 Vmaxpu=1.2 model=1 kW=2.524011463187128 kvar=0.7498872254128004 Phases=1 !yearly=res_kw_5103_pu

New Load.load_p1ulv208_1 conn=wye bus1=p1ulv208.1 kV=0.12 Vminpu=0.8 Vmaxpu=1.2 model=1 kW=3.5598007643941627 kvar=0.8037734238764351 Phases=1 !yearly=res_kw_4421_pu

New Load.load_p1ulv208_2 conn=wye bus1=p1ulv208.2 kV=0.12 Vminpu=0.8 Vmaxpu=1.2 model=1 kW=3.5598007643941627 kvar=0.8037734238764351 Phases=1 !yearly=res_kw_4421_pu

New Load.load_p1ulv209_1 conn=wye bus1=p1ulv209.1 kV=0.12 Vminpu=0.8 Vmaxpu=1.2 model=1 kW=1.0817990316674126 kvar=0.6606347783342864 Phases=1 !yearly=res_kw_7820_pu

New Load.load_p1ulv209_2 conn=wye bus1=p1ulv209.2 kV=0.12 Vminpu=0.8 Vmaxpu=1.2 model=1 kW=1.0817990316674126 kvar=0.6606347783342864 Phases=1 !yearly=res_kw_7820_pu

New Load.load_p1ulv210_1 conn=wye bus1=p1ulv210.1 kV=0.12 Vminpu=0.8 Vmaxpu=1.2 model=1 kW=2.438316346451239 kvar=0.6915244213249778 Phases=1 !yearly=res_kw_1109_pu

New Load.load_p1ulv210_2 conn=wye bus1=p1ulv210.2 kV=0.12 Vminpu=0.8 Vmaxpu=1.2 model=1 kW=2.438316346451239 kvar=0.6915244213249778 Phases=1 !yearly=res_kw_1109_pu

New Load.load_p1ulv211_1 conn=wye bus1=p1ulv211.1 kV=0.12 Vminpu=0.8 Vmaxpu=1.2 model=1 kW=2.951462170813944 kvar=1.3337201697914611 Phases=1 !yearly=res_kw_9789_pu

New Load.load_p1ulv211_2 conn=wye bus1=p1ulv211.2 kV=0.12 Vminpu=0.8 Vmaxpu=1.2 model=1 kW=2.951462170813944 kvar=1.3337201697914611 Phases=1 !yearly=res_kw_9789_pu

New Load.load_p1ulv212_1 conn=wye bus1=p1ulv212.1 kV=0.12 Vminpu=0.8 Vmaxpu=1.2 model=1 kW=3.7847716543397305 kvar=0.8567239737527961 Phases=1 !yearly=res_kw_6256_pu

New Load.load_p1ulv212_2 conn=wye bus1=p1ulv212.2 kV=0.12 Vminpu=0.8 Vmaxpu=1.2 model=1 kW=3.7847716543397305 kvar=0.8567239737527961 Phases=1 !yearly=res_kw_6256_pu

New Load.load_p1ulv213_1 conn=wye bus1=p1ulv212.1 kV=0.12 Vminpu=0.8 Vmaxpu=1.2 model=1 kW=0.696455257947775 kvar=0.26943121901999684 Phases=1 !yearly=res_kw_8494_pu

New Load.load_p1ulv213_2 conn=wye bus1=p1ulv212.2 kV=0.12 Vminpu=0.8 Vmaxpu=1.2 model=1 kW=0.696455257947775 kvar=0.26943121901999684 Phases=1 !yearly=res_kw_8494_pu

New Load.load_p1ulv214_1 conn=wye bus1=p1ulv214.1 kV=0.12 Vminpu=0.8 Vmaxpu=1.2 model=1 kW=3.2926352778956662 kvar=1.3553361300550886 Phases=1 !yearly=res_kw_1797_pu

New Load.load_p1ulv214_2 conn=wye bus1=p1ulv214.2 kV=0.12 Vminpu=0.8 Vmaxpu=1.2 model=1 kW=3.2926352778956662 kvar=1.3553361300550886 Phases=1 !yearly=res_kw_1797_pu

New Load.load_p1ulv215_1 conn=wye bus1=p1ulv215.1 kV=0.12 Vminpu=0.8 Vmaxpu=1.2 model=1 kW=4.659975429983707 kvar=0.30094560216060967 Phases=1 !yearly=res_kw_14393_pu

New Load.load_p1ulv215_2 conn=wye bus1=p1ulv215.2 kV=0.12 Vminpu=0.8 Vmaxpu=1.2 model=1 kW=4.659975429983707 kvar=0.30094560216060967 Phases=1 !yearly=res_kw_14393_pu

New Load.load_p1ulv216_1 conn=wye bus1=p1ulv216.1 kV=0.12 Vminpu=0.8 Vmaxpu=1.2 model=1 kW=2.24661435823502 kvar=0.9216210209688748 Phases=1 !yearly=res_kw_2521_pu

New Load.load_p1ulv216_2 conn=wye bus1=p1ulv216.2 kV=0.12 Vminpu=0.8 Vmaxpu=1.2 model=1 kW=2.24661435823502 kvar=0.9216210209688748 Phases=1 !yearly=res_kw_2521_pu

New Load.load_p1ulv217_1 conn=wye bus1=p1ulv217.1 kV=0.12 Vminpu=0.8 Vmaxpu=1.2 model=1 kW=1.0670839471053375 kvar=0.4535714644585438 Phases=1 !yearly=res_kw_2085_pu

New Load.load_p1ulv217_2 conn=wye bus1=p1ulv217.2 kV=0.12 Vminpu=0.8 Vmaxpu=1.2 model=1 kW=1.0670839471053375 kvar=0.4535714644585438 Phases=1 !yearly=res_kw_2085_pu

New Load.load_p1ulv218_1 conn=wye bus1=p1ulv217.1 kV=0.12 Vminpu=0.8 Vmaxpu=1.2 model=1 kW=1.5924067901709626 kvar=0.46681640832512994 Phases=1 !yearly=res_kw_9813_pu

New Load.load_p1ulv218_2 conn=wye bus1=p1ulv217.2 kV=0.12 Vminpu=0.8 Vmaxpu=1.2 model=1 kW=1.5924067901709626 kvar=0.46681640832512994 Phases=1 !yearly=res_kw_9813_pu

New Load.load_p1ulv219_1 conn=wye bus1=p1ulv219.1 kV=0.12 Vminpu=0.8 Vmaxpu=1.2 model=1 kW=0.7150544099742788 kvar=0.32563033080643944 Phases=1 !yearly=res_kw_1753_pu

New Load.load_p1ulv219_2 conn=wye bus1=p1ulv219.2 kV=0.12 Vminpu=0.8 Vmaxpu=1.2 model=1 kW=0.7150544099742788 kvar=0.32563033080643944 Phases=1 !yearly=res_kw_1753_pu

New Load.load_p1ulv220_1 conn=wye bus1=p1ulv220.1 kV=0.12 Vminpu=0.8 Vmaxpu=1.2 model=1 kW=4.598111299087247 kvar=0.3022070914124596 Phases=1 !yearly=res_kw_4599_pu

New Load.load_p1ulv220_2 conn=wye bus1=p1ulv220.2 kV=0.12 Vminpu=0.8 Vmaxpu=1.2 model=1 kW=4.598111299087247 kvar=0.3022070914124596 Phases=1 !yearly=res_kw_4599_pu

New Load.load_p1ulv221_1 conn=wye bus1=p1ulv221.1 kV=0.12 Vminpu=0.8 Vmaxpu=1.2 model=1 kW=11.823911317649609 kvar=2.886053095970462 Phases=1 !yearly=res_kw_1030_pu

New Load.load_p1ulv221_2 conn=wye bus1=p1ulv221.2 kV=0.12 Vminpu=0.8 Vmaxpu=1.2 model=1 kW=11.823911317649609 kvar=2.886053095970462 Phases=1 !yearly=res_kw_1030_pu

New Load.load_p1ulv222_1 conn=wye bus1=p1ulv222.1 kV=0.12 Vminpu=0.8 Vmaxpu=1.2 model=1 kW=9.008585352480557 kvar=1.6217669740083818 Phases=1 !yearly=res_kw_1573_pu

New Load.load_p1ulv222_2 conn=wye bus1=p1ulv222.2 kV=0.12 Vminpu=0.8 Vmaxpu=1.2 model=1 kW=9.008585352480557 kvar=1.6217669740083818 Phases=1 !yearly=res_kw_1573_pu

New Load.load_p1ulv223_1 conn=wye bus1=p1ulv222.1 kV=0.12 Vminpu=0.8 Vmaxpu=1.2 model=1 kW=3.792772714456382 kvar=0.2856873973593337 Phases=1 !yearly=res_kw_5416_pu

New Load.load_p1ulv223_2 conn=wye bus1=p1ulv222.2 kV=0.12 Vminpu=0.8 Vmaxpu=1.2 model=1 kW=3.792772714456382 kvar=0.2856873973593337 Phases=1 !yearly=res_kw_5416_pu

New Load.load_p1ulv224_1 conn=wye bus1=p1ulv224.1 kV=0.12 Vminpu=0.8 Vmaxpu=1.2 model=1 kW=5.875485744114147 kvar=1.294896241985991 Phases=1 !yearly=res_kw_6117_pu

New Load.load_p1ulv224_2 conn=wye bus1=p1ulv224.2 kV=0.12 Vminpu=0.8 Vmaxpu=1.2 model=1 kW=5.875485744114147 kvar=1.294896241985991 Phases=1 !yearly=res_kw_6117_pu

New Load.load_p1ulv225_1 conn=wye bus1=p1ulv225.1 kV=0.12 Vminpu=0.8 Vmaxpu=1.2 model=1 kW=7.925260736902077 kvar=1.726135012516628 Phases=1 !yearly=res_kw_7964_pu

New Load.load_p1ulv225_2 conn=wye bus1=p1ulv225.2 kV=0.12 Vminpu=0.8 Vmaxpu=1.2 model=1 kW=7.925260736902077 kvar=1.726135012516628 Phases=1 !yearly=res_kw_7964_pu

New Load.load_p1ulv226_1 conn=wye bus1=p1ulv226.1 kV=0.12 Vminpu=0.8 Vmaxpu=1.2 model=1 kW=2.9986395203885086 kvar=0.98736986115534 Phases=1 !yearly=res_kw_14639_pu

New Load.load_p1ulv226_2 conn=wye bus1=p1ulv226.2 kV=0.12 Vminpu=0.8 Vmaxpu=1.2 model=1 kW=2.9986395203885086 kvar=0.98736986115534 Phases=1 !yearly=res_kw_14639_pu

New Load.load_p1ulv246_1 conn=wye bus1=p1ulv246.1 kV=0.12 Vminpu=0.8 Vmaxpu=1.2 model=1 kW=2.2172270001214414 kvar=0.5728910506011398 Phases=1 !yearly=com_kw_20798_pu

New Load.load_p1ulv246_2 conn=wye bus1=p1ulv246.2 kV=0.12 Vminpu=0.8 Vmaxpu=1.2 model=1 kW=2.2172270001214414 kvar=0.5728910506011398 Phases=1 !yearly=com_kw_20798_pu

New Load.load_p1ulv247_1 conn=wye bus1=p1ulv247.1 kV=0.12 Vminpu=0.8 Vmaxpu=1.2 model=1 kW=2.4082436890639105 kvar=1.156811070500272 Phases=1 !yearly=res_kw_14615_pu

New Load.load_p1ulv247_2 conn=wye bus1=p1ulv247.2 kV=0.12 Vminpu=0.8 Vmaxpu=1.2 model=1 kW=2.4082436890639105 kvar=1.156811070500272 Phases=1 !yearly=res_kw_14615_pu

New Load.load_p1ulv248_1 conn=wye bus1=p1ulv248.1 kV=0.12 Vminpu=0.8 Vmaxpu=1.2 model=1 kW=16.650139238608073 kvar=3.7957835085882223 Phases=1 !yearly=res_kw_8946_pu

New Load.load_p1ulv248_2 conn=wye bus1=p1ulv248.2 kV=0.12 Vminpu=0.8 Vmaxpu=1.2 model=1 kW=16.650139238608073 kvar=3.7957835085882223 Phases=1 !yearly=res_kw_8946_pu

New Load.load_p1ulv249_1 conn=wye bus1=p1ulv249.1 kV=0.12 Vminpu=0.8 Vmaxpu=1.2 model=1 kW=4.847347601506046 kvar=0.4589609379627909 Phases=1 !yearly=com_kw_1293_pu

New Load.load_p1ulv249_2 conn=wye bus1=p1ulv249.2 kV=0.12 Vminpu=0.8 Vmaxpu=1.2 model=1 kW=4.847347601506046 kvar=0.4589609379627909 Phases=1 !yearly=com_kw_1293_pu

New Load.load_p1ulv250_1 conn=wye bus1=p1ulv250.1 kV=0.12 Vminpu=0.8 Vmaxpu=1.2 model=1 kW=2.0307394237991176 kvar=1.0095205649117913 Phases=1 !yearly=res_kw_10513_pu

New Load.load_p1ulv250_2 conn=wye bus1=p1ulv250.2 kV=0.12 Vminpu=0.8 Vmaxpu=1.2 model=1 kW=2.0307394237991176 kvar=1.0095205649117913 Phases=1 !yearly=res_kw_10513_pu

New Load.load_p1ulv251_1 conn=wye bus1=p1ulv250.1 kV=0.12 Vminpu=0.8 Vmaxpu=1.2 model=1 kW=1.7772343659192216 kvar=0.5892626614885013 Phases=1 !yearly=res_kw_9512_pu

New Load.load_p1ulv251_2 conn=wye bus1=p1ulv250.2 kV=0.12 Vminpu=0.8 Vmaxpu=1.2 model=1 kW=1.7772343659192216 kvar=0.5892626614885013 Phases=1 !yearly=res_kw_9512_pu

New Load.load_p1ulv252_1 conn=wye bus1=p1ulv252.1 kV=0.12 Vminpu=0.8 Vmaxpu=1.2 model=1 kW=0.9541125560071345 kvar=0.3732603805546264 Phases=1 !yearly=res_kw_4828_pu

New Load.load_p1ulv252_2 conn=wye bus1=p1ulv252.2 kV=0.12 Vminpu=0.8 Vmaxpu=1.2 model=1 kW=0.9541125560071345 kvar=0.3732603805546264 Phases=1 !yearly=res_kw_4828_pu

New Load.load_p1ulv253_1 conn=wye bus1=p1ulv252.1 kV=0.12 Vminpu=0.8 Vmaxpu=1.2 model=1 kW=1.0817990316674126 kvar=0.6606347783342864 Phases=1 !yearly=res_kw_7820_pu

New Load.load_p1ulv253_2 conn=wye bus1=p1ulv252.2 kV=0.12 Vminpu=0.8 Vmaxpu=1.2 model=1 kW=1.0817990316674126 kvar=0.6606347783342864 Phases=1 !yearly=res_kw_7820_pu

New Load.load_p1ulv254_1 conn=wye bus1=p1ulv254.1 kV=0.12 Vminpu=0.8 Vmaxpu=1.2 model=1 kW=2.0767431255860616 kvar=0.16976979075065665 Phases=1 !yearly=res_kw_1633_pu

New Load.load_p1ulv254_2 conn=wye bus1=p1ulv254.2 kV=0.12 Vminpu=0.8 Vmaxpu=1.2 model=1 kW=2.0767431255860616 kvar=0.16976979075065665 Phases=1 !yearly=res_kw_1633_pu

New Load.load_p1ulv255_1 conn=wye bus1=p1ulv255.1 kV=0.12 Vminpu=0.8 Vmaxpu=1.2 model=1 kW=1.3067870545822593 kvar=0.7187638131848453 Phases=1 !yearly=res_kw_12787_pu

New Load.load_p1ulv255_2 conn=wye bus1=p1ulv255.2 kV=0.12 Vminpu=0.8 Vmaxpu=1.2 model=1 kW=1.3067870545822593 kvar=0.7187638131848453 Phases=1 !yearly=res_kw_12787_pu

New Load.load_p1ulv256_1 conn=wye bus1=p1ulv256.1 kV=0.12 Vminpu=0.8 Vmaxpu=1.2 model=1 kW=2.445994317964332 kvar=0.8597073331859654 Phases=1 !yearly=res_kw_13148_pu

New Load.load_p1ulv256_2 conn=wye bus1=p1ulv256.2 kV=0.12 Vminpu=0.8 Vmaxpu=1.2 model=1 kW=2.445994317964332 kvar=0.8597073331859654 Phases=1 !yearly=res_kw_13148_pu

New Load.load_p1ulv257_1 conn=wye bus1=p1ulv257.1 kV=0.12 Vminpu=0.8 Vmaxpu=1.2 model=1 kW=1.1146755706450526 kvar=0.5956233891083068 Phases=1 !yearly=res_kw_1730_pu

New Load.load_p1ulv257_2 conn=wye bus1=p1ulv257.2 kV=0.12 Vminpu=0.8 Vmaxpu=1.2 model=1 kW=1.1146755706450526 kvar=0.5956233891083068 Phases=1 !yearly=res_kw_1730_pu

New Load.load_p1ulv258_1 conn=wye bus1=p1ulv257.1 kV=0.12 Vminpu=0.8 Vmaxpu=1.2 model=1 kW=1.8033099995778592 kvar=0.5916030112244985 Phases=1 !yearly=res_kw_7033_pu

New Load.load_p1ulv258_2 conn=wye bus1=p1ulv257.2 kV=0.12 Vminpu=0.8 Vmaxpu=1.2 model=1 kW=1.8033099995778592 kvar=0.5916030112244985 Phases=1 !yearly=res_kw_7033_pu

New Load.load_p1ulv259_1 conn=wye bus1=p1ulv259.1 kV=0.12 Vminpu=0.8 Vmaxpu=1.2 model=1 kW=1.387760587201287 kvar=0.7910374472799141 Phases=1 !yearly=res_kw_5555_pu

New Load.load_p1ulv259_2 conn=wye bus1=p1ulv259.2 kV=0.12 Vminpu=0.8 Vmaxpu=1.2 model=1 kW=1.387760587201287 kvar=0.7910374472799141 Phases=1 !yearly=res_kw_5555_pu

New Load.load_p1ulv260_1 conn=wye bus1=p1ulv260.1 kV=0.12 Vminpu=0.8 Vmaxpu=1.2 model=1 kW=1.554325896527151 kvar=0.5828877012431191 Phases=1 !yearly=res_kw_11147_pu

New Load.load_p1ulv260_2 conn=wye bus1=p1ulv260.2 kV=0.12 Vminpu=0.8 Vmaxpu=1.2 model=1 kW=1.554325896527151 kvar=0.5828877012431191 Phases=1 !yearly=res_kw_11147_pu

New Load.load_p1ulv261_1 conn=wye bus1=p1ulv261.1 kV=0.12 Vminpu=0.8 Vmaxpu=1.2 model=1 kW=4.550894852621135 kvar=1.581561675901674 Phases=1 !yearly=res_kw_2067_pu

New Load.load_p1ulv261_2 conn=wye bus1=p1ulv261.2 kV=0.12 Vminpu=0.8 Vmaxpu=1.2 model=1 kW=4.550894852621135 kvar=1.581561675901674 Phases=1 !yearly=res_kw_2067_pu

New Load.load_p1ulv262_1 conn=wye bus1=p1ulv262.1 kV=0.12 Vminpu=0.8 Vmaxpu=1.2 model=1 kW=1.8137464333358868 kvar=0.6637787449405657 Phases=1 !yearly=res_kw_14053_pu

New Load.load_p1ulv262_2 conn=wye bus1=p1ulv262.2 kV=0.12 Vminpu=0.8 Vmaxpu=1.2 model=1 kW=1.8137464333358868 kvar=0.6637787449405657 Phases=1 !yearly=res_kw_14053_pu

New Load.load_p1ulv263_1 conn=wye bus1=p1ulv263.1 kV=0.12 Vminpu=0.8 Vmaxpu=1.2 model=1 kW=1.7037919474579788 kvar=0.6943112548118018 Phases=1 !yearly=res_kw_9103_pu

New Load.load_p1ulv263_2 conn=wye bus1=p1ulv263.2 kV=0.12 Vminpu=0.8 Vmaxpu=1.2 model=1 kW=1.7037919474579788 kvar=0.6943112548118018 Phases=1 !yearly=res_kw_9103_pu

New Load.load_p1ulv264_1 conn=wye bus1=p1ulv263.1 kV=0.12 Vminpu=0.8 Vmaxpu=1.2 model=1 kW=1.1461342593009323 kvar=0.5165512162199262 Phases=1 !yearly=res_kw_6984_pu

New Load.load_p1ulv264_2 conn=wye bus1=p1ulv263.2 kV=0.12 Vminpu=0.8 Vmaxpu=1.2 model=1 kW=1.1461342593009323 kvar=0.5165512162199262 Phases=1 !yearly=res_kw_6984_pu

New Load.load_p1ulv265_1 conn=wye bus1=p1ulv265.1 kV=0.12 Vminpu=0.8 Vmaxpu=1.2 model=1 kW=1.8322096344455547 kvar=0.7991596594888891 Phases=1 !yearly=res_kw_588_pu

New Load.load_p1ulv265_2 conn=wye bus1=p1ulv265.2 kV=0.12 Vminpu=0.8 Vmaxpu=1.2 model=1 kW=1.8322096344455547 kvar=0.7991596594888891 Phases=1 !yearly=res_kw_588_pu

New Load.load_p1ulv266_1 conn=wye bus1=p1ulv266.1 kV=0.12 Vminpu=0.8 Vmaxpu=1.2 model=1 kW=1.6295328634326751 kvar=0.9988748196040309 Phases=1 !yearly=res_kw_5167_pu

New Load.load_p1ulv266_2 conn=wye bus1=p1ulv266.2 kV=0.12 Vminpu=0.8 Vmaxpu=1.2 model=1 kW=1.6295328634326751 kvar=0.9988748196040309 Phases=1 !yearly=res_kw_5167_pu

New Load.load_p1ulv267_1 conn=wye bus1=p1ulv267.1 kV=0.12 Vminpu=0.8 Vmaxpu=1.2 model=1 kW=1.8309189378455104 kvar=0.6069744647018672 Phases=1 !yearly=res_kw_10071_pu

New Load.load_p1ulv267_2 conn=wye bus1=p1ulv267.2 kV=0.12 Vminpu=0.8 Vmaxpu=1.2 model=1 kW=1.8309189378455104 kvar=0.6069744647018672 Phases=1 !yearly=res_kw_10071_pu

New Load.load_p1ulv268_1 conn=wye bus1=p1ulv268.1 kV=0.12 Vminpu=0.8 Vmaxpu=1.2 model=1 kW=2.298373512871933 kvar=0.08780226018253445 Phases=1 !yearly=res_kw_12305_pu

New Load.load_p1ulv268_2 conn=wye bus1=p1ulv268.2 kV=0.12 Vminpu=0.8 Vmaxpu=1.2 model=1 kW=2.298373512871933 kvar=0.08780226018253445 Phases=1 !yearly=res_kw_12305_pu

New Load.load_p1ulv269_1 conn=wye bus1=p1ulv269.1 kV=0.12 Vminpu=0.8 Vmaxpu=1.2 model=1 kW=1.0424068784344542 kvar=0.5557060719923596 Phases=1 !yearly=res_kw_1960_pu

New Load.load_p1ulv269_2 conn=wye bus1=p1ulv269.2 kV=0.12 Vminpu=0.8 Vmaxpu=1.2 model=1 kW=1.0424068784344542 kvar=0.5557060719923596 Phases=1 !yearly=res_kw_1960_pu

New Load.load_p1ulv270_1 conn=wye bus1=p1ulv269.1 kV=0.12 Vminpu=0.8 Vmaxpu=1.2 model=1 kW=2.131827489381682 kvar=0.6495252596209705 Phases=1 !yearly=res_kw_4621_pu

New Load.load_p1ulv270_2 conn=wye bus1=p1ulv269.2 kV=0.12 Vminpu=0.8 Vmaxpu=1.2 model=1 kW=2.131827489381682 kvar=0.6495252596209705 Phases=1 !yearly=res_kw_4621_pu

New Load.load_p1ulv271_1 conn=wye bus1=p1ulv271.1 kV=0.12 Vminpu=0.8 Vmaxpu=1.2 model=1 kW=1.0527025662462328 kvar=0.37071631486053974 Phases=1 !yearly=res_kw_15158_pu

New Load.load_p1ulv271_2 conn=wye bus1=p1ulv271.2 kV=0.12 Vminpu=0.8 Vmaxpu=1.2 model=1 kW=1.0527025662462328 kvar=0.37071631486053974 Phases=1 !yearly=res_kw_15158_pu

New Load.load_p1ulv272_1 conn=wye bus1=p1ulv272.1 kV=0.12 Vminpu=0.8 Vmaxpu=1.2 model=1 kW=1.9920550244580673 kvar=1.016709072862991 Phases=1 !yearly=res_kw_11756_pu

New Load.load_p1ulv272_2 conn=wye bus1=p1ulv272.2 kV=0.12 Vminpu=0.8 Vmaxpu=1.2 model=1 kW=1.9920550244580673 kvar=1.016709072862991 Phases=1 !yearly=res_kw_11756_pu

New Load.load_p1ulv273_1 conn=wye bus1=p1ulv273.1 kV=0.12 Vminpu=0.8 Vmaxpu=1.2 model=1 kW=2.0766765721521026 kvar=0.7315756387274867 Phases=1 !yearly=res_kw_9906_pu

New Load.load_p1ulv273_2 conn=wye bus1=p1ulv273.2 kV=0.12 Vminpu=0.8 Vmaxpu=1.2 model=1 kW=2.0766765721521026 kvar=0.7315756387274867 Phases=1 !yearly=res_kw_9906_pu

New Load.load_p1ulv274_1 conn=wye bus1=p1ulv274.1 kV=0.12 Vminpu=0.8 Vmaxpu=1.2 model=1 kW=1.2075389461119934 kvar=0.3167249782629938 Phases=1 !yearly=res_kw_11868_pu

New Load.load_p1ulv274_2 conn=wye bus1=p1ulv274.2 kV=0.12 Vminpu=0.8 Vmaxpu=1.2 model=1 kW=1.2075389461119934 kvar=0.3167249782629938 Phases=1 !yearly=res_kw_11868_pu

New Load.load_p1ulv275_1 conn=wye bus1=p1ulv274.1 kV=0.12 Vminpu=0.8 Vmaxpu=1.2 model=1 kW=4.84153235443771 kvar=1.447226409705929 Phases=1 !yearly=res_kw_10803_pu

New Load.load_p1ulv275_2 conn=wye bus1=p1ulv274.2 kV=0.12 Vminpu=0.8 Vmaxpu=1.2 model=1 kW=4.84153235443771 kvar=1.447226409705929 Phases=1 !yearly=res_kw_10803_pu

New Load.load_p1ulv276_1 conn=wye bus1=p1ulv276.1 kV=0.12 Vminpu=0.8 Vmaxpu=1.2 model=1 kW=1.5924067901709626 kvar=0.46681640832512994 Phases=1 !yearly=res_kw_9813_pu

New Load.load_p1ulv276_2 conn=wye bus1=p1ulv276.2 kV=0.12 Vminpu=0.8 Vmaxpu=1.2 model=1 kW=1.5924067901709626 kvar=0.46681640832512994 Phases=1 !yearly=res_kw_9813_pu

New Load.load_p1ulv277_1 conn=wye bus1=p1ulv277.1 kV=0.12 Vminpu=0.8 Vmaxpu=1.2 model=1 kW=1.6295328634326751 kvar=0.9988748196040309 Phases=1 !yearly=res_kw_5167_pu
