New Line.l(r:p1udt1299lv-p1ulv6411) Units=km Length=0.00910939 bus1=p1udt1299lv.1.2 bus2=p1ulv6411.1.2 switch=n enabled=y phases=2 Linecode=1P_UG_AL_4/0_Sweetbriar_2

New Line.l(r:p1udt1300lv-p1ulv6412) Units=km Length=0.00823644 bus1=p1udt1300lv.1.2 bus2=p1ulv6412.1.2 switch=n enabled=y phases=2 Linecode=1P_UG_AL_4/0_Sweetbriar_2

New Line.l(r:p1udm6216-p1ulv6414) Units=km Length=0.015485500000000001 bus1=p1udm6216.1.2 bus2=p1ulv6414.1.2 switch=n enabled=y phases=2 Linecode=1P_UG_AL_1/0_Brenau_2

New Line.l(r:p1udm6216-p1ulv6415) Units=km Length=0.00498143 bus1=p1udm6216.1.2 bus2=p1ulv6415.1.2 switch=n enabled=y phases=2 Linecode=1P_UG_AL_1/0_Brenau_2

New Line.l(r:p1udm6216-p1ulv6467) Units=km Length=0.0134146 bus1=p1udm6216.1.2 bus2=p1ulv6467.1.2 switch=n enabled=y phases=2 Linecode=1P_UG_AL_1/0_Brenau_2

New Line.l(r:p1udm6216-p1ulv6468) Units=km Length=0.0058578 bus1=p1udm6216.1.2 bus2=p1ulv6468.1.2 switch=n enabled=y phases=2 Linecode=1P_UG_AL_1/0_Brenau_2

New Line.l(r:p1udm6216-p1udt1302lv) Units=km Length=0.00827964 bus1=p1udt1302lv.1.2 bus2=p1udm6216.1.2 switch=n enabled=y phases=2 Linecode=1P_UG_AL_4/0_Sweetbriar_2

New Line.l(r:p1udm6218-p1ulv6444) Units=km Length=0.0035105 bus1=p1udm6218.1.2 bus2=p1ulv6444.1.2 switch=n enabled=y phases=2 Linecode=1P_UG_AL_1/0_Brenau_2

New Line.l(r:p1udm6218-p1ulv6466) Units=km Length=0.0157601 bus1=p1udm6218.1.2 bus2=p1ulv6466.1.2 switch=n enabled=y phases=2 Linecode=1P_UG_AL_1/0_Brenau_2

New Line.l(r:p1udm6219-p1ulv6461) Units=km Length=0.016125500000000004 bus1=p1udm6219.1.2 bus2=p1ulv6461.1.2 switch=n enabled=y phases=2 Linecode=1P_UG_AL_1/0_Brenau_2

New Line.l(r:p1udm6218-p1udm6219) Units=km Length=0.019888800000000005 bus1=p1udm6218.1.2 bus2=p1udm6219.1.2 switch=n enabled=y phases=2 Linecode=1P_UG_AL_1/0_Brenau_2

New Line.l(r:p1udm6218-p1udt1302lv) Units=km Length=0.028176700000000002 bus1=p1udt1302lv.1.2 bus2=p1udm6218.1.2 switch=n enabled=y phases=2 Linecode=1P_UG_AL_4/0_Sweetbriar_2

New Line.l(r:p1udt1303lv-p1ulv6421) Units=km Length=0.00955531 bus1=p1udt1303lv.1.2 bus2=p1ulv6421.1.2 switch=n enabled=y phases=2 Linecode=1P_UG_AL_1/0_Brenau_2

New Line.l(r:p1udm6224-p1ulv6420) Units=km Length=0.0178502 bus1=p1udm6224.1.2 bus2=p1ulv6420.1.2 switch=n enabled=y phases=2 Linecode=1P_UG_AL_1/0_Brenau_2

New Line.l(r:p1udm6223-p1ulv6416) Units=km Length=0.022947300000000004 bus1=p1udm6223.1.2 bus2=p1ulv6416.1.2 switch=n enabled=y phases=2 Linecode=1P_UG_AL_1/0_Brenau_2

New Line.l(r:p1udm6223-p1udm6224) Units=km Length=0.0650433 bus1=p1udm6224.1.2 bus2=p1udm6223.1.2 switch=n enabled=y phases=2 Linecode=1P_UG_AL_1/0_Brenau_2

New Line.l(r:p1udm6224-p1udt1303lv) Units=km Length=0.00909471 bus1=p1udt1303lv.1.2 bus2=p1udm6224.1.2 switch=n enabled=y phases=2 Linecode=1P_UG_AL_1/0_Brenau_2

New Line.l(r:p1udm6226-p1ulv6429) Units=km Length=0.0124563 bus1=p1udm6226.1.2 bus2=p1ulv6429.1.2 switch=n enabled=y phases=2 Linecode=1P_UG_AL_1/0_Brenau_2

New Line.l(r:p1udm6226-p1udt1303lv) Units=km Length=0.0181987 bus1=p1udt1303lv.1.2 bus2=p1udm6226.1.2 switch=n enabled=y phases=2 Linecode=1P_UG_AL_1/0_Brenau_2

New Line.l(r:p1udt1304lv-p1ulv6419) Units=km Length=0.0210788 bus1=p1udt1304lv.1.2 bus2=p1ulv6419.1.2 switch=n enabled=y phases=2 Linecode=1P_UG_AL_1/0_Brenau_2

New Line.l(r:p1udm6227-p1ulv6417) Units=km Length=0.0211336 bus1=p1udm6227.1.2 bus2=p1ulv6417.1.2 switch=n enabled=y phases=2 Linecode=1P_UG_AL_1/0_Brenau_2

New Line.l(r:p1udm6227-p1ulv6436) Units=km Length=0.0173371 bus1=p1udm6227.1.2 bus2=p1ulv6436.1.2 switch=n enabled=y phases=2 Linecode=1P_UG_AL_1/0_Brenau_2

New Line.l(r:p1udm6227-p1udt1304lv) Units=km Length=0.008395980000000003 bus1=p1udt1304lv.1.2 bus2=p1udm6227.1.2 switch=n enabled=y phases=2 Linecode=1P_UG_AL_2/0_Converse_2

New Line.l(r:p1udt1305lv-p1ulv6424) Units=km Length=0.0115624 bus1=p1udt1305lv.1.2 bus2=p1ulv6424.1.2 switch=n enabled=y phases=2 Linecode=1P_UG_AL_1/0_Brenau_2

New Line.l(r:p1udm6230-p1ulv6422) Units=km Length=0.0147724 bus1=p1udm6230.1.2 bus2=p1ulv6422.1.2 switch=n enabled=y phases=2 Linecode=1P_UG_AL_1/0_Brenau_2

New Line.l(r:p1udm6231-p1ulv6423) Units=km Length=0.0123813 bus1=p1udm6231.1.2 bus2=p1ulv6423.1.2 switch=n enabled=y phases=2 Linecode=1P_UG_AL_1/0_Brenau_2

New Line.l(r:p1udm6230-p1udm6231) Units=km Length=0.0480682 bus1=p1udm6230.1.2 bus2=p1udm6231.1.2 switch=n enabled=y phases=2 Linecode=1P_UG_AL_1/0_Brenau_2

New Line.l(r:p1udm6230-p1udt1305lv) Units=km Length=0.00876601 bus1=p1udt1305lv.1.2 bus2=p1udm6230.1.2 switch=n enabled=y phases=2 Linecode=1P_UG_AL_1/0_Brenau_2

New Line.l(r:p1udm6233-p1ulv6426) Units=km Length=0.0117169 bus1=p1udm6233.1.2 bus2=p1ulv6426.1.2 switch=n enabled=y phases=2 Linecode=1P_UG_AL_1/0_Brenau_2

New Line.l(r:p1udm6234-p1ulv6427) Units=km Length=0.0119377 bus1=p1udm6234.1.2 bus2=p1ulv6427.1.2 switch=n enabled=y phases=2 Linecode=1P_UG_AL_1/0_Brenau_2

New Line.l(r:p1udm6235-p1ulv6428) Units=km Length=0.0157831 bus1=p1udm6235.1.2 bus2=p1ulv6428.1.2 switch=n enabled=y phases=2 Linecode=1P_UG_AL_1/0_Brenau_2

New Line.l(r:p1udm6234-p1udm6235) Units=km Length=0.00877402 bus1=p1udm6234.1.2 bus2=p1udm6235.1.2 switch=n enabled=y phases=2 Linecode=1P_UG_AL_1/0_Brenau_2

New Line.l(r:p1udm6233-p1udm6234) Units=km Length=0.00876002 bus1=p1udm6233.1.2 bus2=p1udm6234.1.2 switch=n enabled=y phases=2 Linecode=1P_UG_AL_1/0_Brenau_2

New Line.l(r:p1udm6233-p1udt1305lv) Units=km Length=0.00876601 bus1=p1udt1305lv.1.2 bus2=p1udm6233.1.2 switch=n enabled=y phases=2 Linecode=1P_UG_AL_1/0_Brenau_2

New Line.l(r:p1udt1306lv-p1ulv6430) Units=km Length=0.00729261 bus1=p1udt1306lv.1.2 bus2=p1ulv6430.1.2 switch=n enabled=y phases=2 Linecode=1P_UG_AL_1/0_Brenau_2

New Line.l(r:p1udt1306lv-p1ulv6440) Units=km Length=0.013161 bus1=p1udt1306lv.1.2 bus2=p1ulv6440.1.2 switch=n enabled=y phases=2 Linecode=1P_UG_AL_1/0_Brenau_2

New Line.l(r:p1udm6237-p1ulv6431) Units=km Length=0.0140927 bus1=p1udm6237.1.2 bus2=p1ulv6431.1.2 switch=n enabled=y phases=2 Linecode=1P_UG_AL_1/0_Brenau_2

New Line.l(r:p1udm6237-p1ulv6442) Units=km Length=0.0119175 bus1=p1udm6237.1.2 bus2=p1ulv6442.1.2 switch=n enabled=y phases=2 Linecode=1P_UG_AL_1/0_Brenau_2

New Line.l(r:p1udm6242-p1ulv6443) Units=km Length=0.011236 bus1=p1udm6242.1.2 bus2=p1ulv6443.1.2 switch=n enabled=y phases=2 Linecode=1P_UG_AL_1/0_Brenau_2

New Line.l(r:p1udm6237-p1udm6242) Units=km Length=0.00985014 bus1=p1udm6237.1.2 bus2=p1udm6242.1.2 switch=n enabled=y phases=2 Linecode=1P_UG_AL_1/0_Brenau_2

New Line.l(r:p1udm6237-p1udt1306lv) Units=km Length=0.00985683 bus1=p1udt1306lv.1.2 bus2=p1udm6237.1.2 switch=n enabled=y phases=2 Linecode=1P_UG_AL_2/0_Converse_2

New Line.l(r:p1udm6238-p1ulv6438) Units=km Length=0.0171679 bus1=p1udm6238.1.2 bus2=p1ulv6438.1.2 switch=n enabled=y phases=2 Linecode=1P_UG_AL_1/0_Brenau_2

New Line.l(r:p1udm6238-p1ulv6439) Units=km Length=0.014467700000000002 bus1=p1udm6238.1.2 bus2=p1ulv6439.1.2 switch=n enabled=y phases=2 Linecode=1P_UG_AL_1/0_Brenau_2

New Line.l(r:p1udm6238-p1udt1306lv) Units=km Length=0.00985014 bus1=p1udt1306lv.1.2 bus2=p1udm6238.1.2 switch=n enabled=y phases=2 Linecode=1P_UG_AL_1/0_Brenau_2

New Line.l(r:p1udt1307lv-p1ulv6434) Units=km Length=0.014791 bus1=p1udt1307lv.1.2 bus2=p1ulv6434.1.2 switch=n enabled=y phases=2 Linecode=1P_UG_AL_1/0_Brenau_2

New Line.l(r:p1udm6243-p1ulv6432) Units=km Length=0.0144476 bus1=p1udm6243.1.2 bus2=p1ulv6432.1.2 switch=n enabled=y phases=2 Linecode=1P_UG_AL_1/0_Brenau_2

New Line.l(r:p1udm6243-p1udt1307lv) Units=km Length=0.009247360000000001 bus1=p1udt1307lv.1.2 bus2=p1udm6243.1.2 switch=n enabled=y phases=2 Linecode=1P_UG_AL_1/0_Brenau_2

New Line.l(r:p1udt1308lv-p1ulv6449) Units=km Length=0.0163729 bus1=p1udt1308lv.1.2 bus2=p1ulv6449.1.2 switch=n enabled=y phases=2 Linecode=1P_UG_AL_1/0_Brenau_2

New Line.l(r:p1udm6245-p1ulv6437) Units=km Length=0.0125626 bus1=p1udm6245.1.2 bus2=p1ulv6437.1.2 switch=n enabled=y phases=2 Linecode=1P_UG_AL_1/0_Brenau_2

New Line.l(r:p1udm6245-p1udt1308lv) Units=km Length=0.0763848 bus1=p1udt1308lv.1.2 bus2=p1udm6245.1.2 switch=n enabled=y phases=2 Linecode=1P_UG_AL_1/0_Brenau_2

New Line.l(r:p1udm6246-p1ulv6448) Units=km Length=0.0162019 bus1=p1udm6246.1.2 bus2=p1ulv6448.1.2 switch=n enabled=y phases=2 Linecode=1P_UG_AL_1/0_Brenau_2

New Line.l(r:p1udm6246-p1ulv8175) Units=km Length=0.00728984 bus1=p1udm6246.1.2 bus2=p1ulv8175.1.2 switch=n enabled=y phases=2 Linecode=1P_UG_AL_4/0_Sweetbriar_2

New Line.l(r:p1udm6246-p1udt1308lv) Units=km Length=0.009849760000000003 bus1=p1udt1308lv.1.2 bus2=p1udm6246.1.2 switch=n enabled=y phases=2 Linecode=1P_UG_AL_4/0_Sweetbriar_2

New Line.l(r:p1udt1309lv-p1ulv6450) Units=km Length=0.00508737 bus1=p1udt1309lv.1.2 bus2=p1ulv6450.1.2 switch=n enabled=y phases=2 Linecode=1P_UG_AL_1/0_Brenau_2

New Line.l(r:p1udm6249-p1ulv6445) Units=km Length=0.00520543 bus1=p1udm6249.1.2 bus2=p1ulv6445.1.2 switch=n enabled=y phases=2 Linecode=1P_UG_AL_1/0_Brenau_2

New Line.l(r:p1udm6249-p1ulv6447) Units=km Length=0.0112185 bus1=p1udm6249.1.2 bus2=p1ulv6447.1.2 switch=n enabled=y phases=2 Linecode=1P_UG_AL_1/0_Brenau_2

New Line.l(r:p1udm6249-p1udt1309lv) Units=km Length=0.00838113 bus1=p1udt1309lv.1.2 bus2=p1udm6249.1.2 switch=n enabled=y phases=2 Linecode=1P_UG_AL_2/0_Converse_2

New Line.l(r:p1udm6252-p1ulv6452) Units=km Length=0.00560022 bus1=p1udm6252.1.2 bus2=p1ulv6452.1.2 switch=n enabled=y phases=2 Linecode=1P_UG_AL_1/0_Brenau_2

New Line.l(r:p1udm6253-p1ulv6462) Units=km Length=0.01482 bus1=p1udm6253.1.2 bus2=p1ulv6462.1.2 switch=n enabled=y phases=2 Linecode=1P_UG_AL_1/0_Brenau_2

New Line.l(r:p1udm6252-p1udm6253) Units=km Length=0.008388710000000002 bus1=p1udm6252.1.2 bus2=p1udm6253.1.2 switch=n enabled=y phases=2 Linecode=1P_UG_AL_1/0_Brenau_2

New Line.l(r:p1udm6252-p1udt1309lv) Units=km Length=0.00838113 bus1=p1udt1309lv.1.2 bus2=p1udm6252.1.2 switch=n enabled=y phases=2 Linecode=1P_UG_AL_1/0_Brenau_2

New Line.l(r:p1udt1310lv-p1ulv6454) Units=km Length=0.0101152 bus1=p1udt1310lv.1.2 bus2=p1ulv6454.1.2 switch=n enabled=y phases=2 Linecode=1P_UG_AL_1/0_Brenau_2

New Line.l(r:p1udm6254-p1ulv6453) Units=km Length=0.0121487 bus1=p1udm6254.1.2 bus2=p1ulv6453.1.2 switch=n enabled=y phases=2 Linecode=1P_UG_AL_1/0_Brenau_2

New Line.l(r:p1udm6260-p1ulv6460) Units=km Length=0.00844541 bus1=p1udm6260.1.2 bus2=p1ulv6460.1.2 switch=n enabled=y phases=2 Linecode=1P_UG_AL_1/0_Brenau_2

New Line.l(r:p1udm6262-p1ulv6497) Units=km Length=0.00741826 bus1=p1udm6262.1.2 bus2=p1ulv6497.1.2 switch=n enabled=y phases=2 Linecode=1P_UG_AL_1/0_Brenau_2

New Line.l(r:p1udm6261-p1ulv6496) Units=km Length=0.0134597 bus1=p1udm6261.1.2 bus2=p1ulv6496.1.2 switch=n enabled=y phases=2 Linecode=1P_UG_AL_1/0_Brenau_2

New Line.l(r:p1udm6261-p1udm6262) Units=km Length=0.00728344 bus1=p1udm6262.1.2 bus2=p1udm6261.1.2 switch=n enabled=y phases=2 Linecode=1P_UG_AL_1/0_Brenau_2

New Line.l(r:p1udm6260-p1udm6262) Units=km Length=0.00511658 bus1=p1udm6260.1.2 bus2=p1udm6262.1.2 switch=n enabled=y phases=2 Linecode=1P_UG_AL_1/0_Brenau_2

New Line.l(r:p1udm6254-p1udm6260) Units=km Length=0.010876900000000002 bus1=p1udm6254.1.2 bus2=p1udm6260.1.2 switch=n enabled=y phases=2 Linecode=1P_UG_AL_2/0_Converse_2

New Line.l(r:p1udm6254-p1udt1310lv) Units=km Length=0.0147515 bus1=p1udt1310lv.1.2 bus2=p1udm6254.1.2 switch=n enabled=y phases=2 Linecode=1P_UG_AL_4/0_Sweetbriar_2

New Line.l(r:p1udm6256-p1ulv6455) Units=km Length=0.0101881 bus1=p1udm6256.1.2 bus2=p1ulv6455.1.2 switch=n enabled=y phases=2 Linecode=1P_UG_AL_1/0_Brenau_2

New Line.l(r:p1udm6257-p1ulv6456) Units=km Length=0.0100662 bus1=p1udm6257.1.2 bus2=p1ulv6456.1.2 switch=n enabled=y phases=2 Linecode=1P_UG_AL_1/0_Brenau_2

New Line.l(r:p1udm6258-p1ulv6458) Units=km Length=0.0125523 bus1=p1udm6258.1.2 bus2=p1ulv6458.1.2 switch=n enabled=y phases=2 Linecode=1P_UG_AL_1/0_Brenau_2

New Line.l(r:p1udm6259-p1ulv6459) Units=km Length=0.0127574 bus1=p1udm6259.1.2 bus2=p1ulv6459.1.2 switch=n enabled=y phases=2 Linecode=1P_UG_AL_1/0_Brenau_2

New Line.l(r:p1udm6258-p1udm6259) Units=km Length=0.00898392 bus1=p1udm6258.1.2 bus2=p1udm6259.1.2 switch=n enabled=y phases=2 Linecode=1P_UG_AL_1/0_Brenau_2

New Line.l(r:p1udm6257-p1udm6258) Units=km Length=0.00898449 bus1=p1udm6257.1.2 bus2=p1udm6258.1.2 switch=n enabled=y phases=2 Linecode=1P_UG_AL_1/0_Brenau_2

New Line.l(r:p1udm6256-p1udm6257) Units=km Length=0.00897394 bus1=p1udm6256.1.2 bus2=p1udm6257.1.2 switch=n enabled=y phases=2 Linecode=1P_UG_AL_2/0_Converse_2

New Line.l(r:p1udm6256-p1udt1310lv) Units=km Length=0.00898449 bus1=p1udt1310lv.1.2 bus2=p1udm6256.1.2 switch=n enabled=y phases=2 Linecode=1P_UG_AL_4/0_Sweetbriar_2

New Line.l(r:p1udt1311lv-p1ulv6471) Units=km Length=0.0148368 bus1=p1udt1311lv.1.2 bus2=p1ulv6471.1.2 switch=n enabled=y phases=2 Linecode=1P_OH_AL_2/0_Rucina_2

New Line.l(r:p1udt1311lv-p1ulv6473) Units=km Length=0.0115526 bus1=p1udt1311lv.1.2 bus2=p1ulv6473.1.2 switch=n enabled=y phases=2 Linecode=1P_OH_AL_2/0_Rucina_2

New Line.l(r:p1udt1311lv-p1ulv6474) Units=km Length=0.0151443 bus1=p1udt1311lv.1.2 bus2=p1ulv6474.1.2 switch=n enabled=y phases=2 Linecode=1P_OH_AL_2/0_Rucina_2

New Line.l(r:p1udt1311lv-p1ulv6475) Units=km Length=0.0208591 bus1=p1udt1311lv.1.2 bus2=p1ulv6475.1.2 switch=n enabled=y phases=2 Linecode=1P_OH_AL_2/0_Rucina_2

New Line.l(r:p1udm6263-p1ulv6465) Units=km Length=0.0159248 bus1=p1udm6263.1.2 bus2=p1ulv6465.1.2 switch=n enabled=y phases=2 Linecode=1P_UG_AL_1/0_Brenau_2

New Line.l(r:p1udm6263-p1udt1311lv) Units=km Length=0.075837 bus1=p1udt1311lv.1.2 bus2=p1udm6263.1.2 switch=n enabled=y phases=2 Linecode=1P_OH_AL_4/0_Zuzara_2

New Line.l(r:p1udm6264-p1ulv6470) Units=km Length=0.0116348 bus1=p1udm6264.1.2 bus2=p1ulv6470.1.2 switch=n enabled=y phases=2 Linecode=1P_OH_AL_2/0_Rucina_2

New Line.l(r:p1udm6264-p1udt1311lv) Units=km Length=0.0186275 bus1=p1udt1311lv.1.2 bus2=p1udm6264.1.2 switch=n enabled=y phases=2 Linecode=1P_OH_AL_2/0_Rucina_2

New Line.l(r:p1udm6272-p1ulv6489) Units=km Length=0.00888204 bus1=p1udm6272.1.2 bus2=p1ulv6489.1.2 switch=n enabled=y phases=2 Linecode=1P_UG_AL_1/0_Brenau_2

New Line.l(r:p1udm6270-p1ulv6482) Units=km Length=0.0183999 bus1=p1udm6270.1.2 bus2=p1ulv6482.1.2 switch=n enabled=y phases=2 Linecode=1P_UG_AL_1/0_Brenau_2

New Line.l(r:p1udm6270-p1udm6272) Units=km Length=0.06646100000000002 bus1=p1udm6272.1.2 bus2=p1udm6270.1.2 switch=n enabled=y phases=2 Linecode=1P_UG_AL_1/0_Brenau_2

New Line.l(r:p1udm6272-p1udt1312lv) Units=km Length=0.009546440000000002 bus1=p1udt1312lv.1.2 bus2=p1udm6272.1.2 switch=n enabled=y phases=2 Linecode=1P_UG_AL_1/0_Brenau_2

New Line.l(r:p1udm6274-p1ulv6492) Units=km Length=0.00668384 bus1=p1udm6274.1.2 bus2=p1ulv6492.1.2 switch=n enabled=y phases=2 Linecode=1P_UG_AL_1/0_Brenau_2

New Line.l(r:p1udm6269-p1ulv6469) Units=km Length=0.0110689 bus1=p1udm6269.1.2 bus2=p1ulv6469.1.2 switch=n enabled=y phases=2 Linecode=1P_UG_AL_1/0_Brenau_2

New Line.l(r:p1udm6269-p1ulv6491) Units=km Length=0.0139552 bus1=p1udm6269.1.2 bus2=p1ulv6491.1.2 switch=n enabled=y phases=2 Linecode=1P_UG_AL_1/0_Brenau_2

New Line.l(r:p1udm6269-p1udm6274) Units=km Length=0.00923002 bus1=p1udm6274.1.2 bus2=p1udm6269.1.2 switch=n enabled=y phases=2 Linecode=1P_UG_AL_1/0_Brenau_2

New Line.l(r:p1udm6271-p1ulv6488) Units=km Length=0.010309500000000001 bus1=p1udm6271.1.2 bus2=p1ulv6488.1.2 switch=n enabled=y phases=2 Linecode=1P_OH_AL_2/0_Rucina_2

New Line.l(r:p1udm6271-p1udm6274) Units=km Length=0.019894 bus1=p1udm6274.1.2 bus2=p1udm6271.1.2 switch=n enabled=y phases=2 Linecode=1P_OH_AL_2/0_Rucina_2

New Line.l(r:p1udm6274-p1udt1312lv) Units=km Length=0.0102626 bus1=p1udt1312lv.1.2 bus2=p1udm6274.1.2 switch=n enabled=y phases=2 Linecode=1P_UG_AL_4/0_Sweetbriar_2

New Line.l(r:p1udt1313lv-p1ulv6479) Units=km Length=0.0177883 bus1=p1udt1313lv.1.2 bus2=p1ulv6479.1.2 switch=n enabled=y phases=2 Linecode=1P_UG_AL_1/0_Brenau_2

New Line.l(r:p1udt1313lv-p1ulv8186) Units=km Length=0.00826073 bus1=p1udt1313lv.1.2 bus2=p1ulv8186.1.2 switch=n enabled=y phases=2 Linecode=1P_UG_AL_4/0_Sweetbriar_2

New Line.l(r:p1udm6275-p1ulv6476) Units=km Length=0.017579 bus1=p1udm6275.1.2 bus2=p1ulv6476.1.2 switch=n enabled=y phases=2 Linecode=1P_UG_AL_1/0_Brenau_2

New Line.l(r:p1udm6276-p1ulv6477) Units=km Length=0.0165131 bus1=p1udm6276.1.2 bus2=p1ulv6477.1.2 switch=n enabled=y phases=2 Linecode=1P_UG_AL_1/0_Brenau_2

New Line.l(r:p1udm6275-p1udm6276) Units=km Length=0.00946385 bus1=p1udm6275.1.2 bus2=p1udm6276.1.2 switch=n enabled=y phases=2 Linecode=1P_UG_AL_1/0_Brenau_2

New Line.l(r:p1udm6275-p1udt1313lv) Units=km Length=0.00946385 bus1=p1udt1313lv.1.2 bus2=p1udm6275.1.2 switch=n enabled=y phases=2 Linecode=1P_UG_AL_1/0_Brenau_2

New Line.l(r:p1udm6278-p1ulv6480) Units=km Length=0.0161011 bus1=p1udm6278.1.2 bus2=p1ulv6480.1.2 switch=n enabled=y phases=2 Linecode=1P_UG_AL_1/0_Brenau_2

New Line.l(r:p1udm6279-p1ulv6481) Units=km Length=0.0158797 bus1=p1udm6279.1.2 bus2=p1ulv6481.1.2 switch=n enabled=y phases=2 Linecode=1P_UG_AL_1/0_Brenau_2

New Line.l(r:p1udm6278-p1udm6279) Units=km Length=0.009469630000000001 bus1=p1udm6278.1.2 bus2=p1udm6279.1.2 switch=n enabled=y phases=2 Linecode=1P_UG_AL_1/0_Brenau_2

New Line.l(r:p1udm6278-p1udt1313lv) Units=km Length=0.00946385 bus1=p1udt1313lv.1.2 bus2=p1udm6278.1.2 switch=n enabled=y phases=2 Linecode=1P_UG_AL_1/0_Brenau_2

New Line.l(r:p1udt1314lv-p1ulv6483) Units=km Length=0.0204979 bus1=p1udt1314lv.1.2 bus2=p1ulv6483.1.2 switch=n enabled=y phases=2 Linecode=1P_OH_AL_2/0_Rucina_2

New Line.l(r:p1udt1314lv-p1ulv6487) Units=km Length=0.0154706 bus1=p1udt1314lv.1.2 bus2=p1ulv6487.1.2 switch=n enabled=y phases=2 Linecode=1P_OH_AL_2/0_Rucina_2

New Line.l(r:p1udt1315lv-p1ulv8190) Units=km Length=0.00816398 bus1=p1udt1315lv.1.2 bus2=p1ulv8190.1.2 switch=n enabled=y phases=2 Linecode=1P_UG_AL_4/0_Sweetbriar_2

New Line.l(r:p1udm6283-p1ulv6484) Units=km Length=0.0113193 bus1=p1udm6283.1.2 bus2=p1ulv6484.1.2 switch=n enabled=y phases=2 Linecode=1P_UG_AL_1/0_Brenau_2

New Line.l(r:p1udm6283-p1udt1315lv) Units=km Length=0.00946385 bus1=p1udt1315lv.1.2 bus2=p1udm6283.1.2 switch=n enabled=y phases=2 Linecode=1P_UG_AL_1/0_Brenau_2

New Line.l(r:p1udt1316lv-p1ulv6490) Units=km Length=0.0152854 bus1=p1udt1316lv.1.2 bus2=p1ulv6490.1.2 switch=n enabled=y phases=2 Linecode=1P_UG_AL_1/0_Brenau_2

New Line.l(r:p1udm6286-p1ulv6494) Units=km Length=0.0153873 bus1=p1udm6286.1.2 bus2=p1ulv6494.1.2 switch=n enabled=y phases=2 Linecode=1P_UG_AL_1/0_Brenau_2

New Line.l(r:p1udm6286-p1udt1316lv) Units=km Length=0.00775403 bus1=p1udt1316lv.1.2 bus2=p1udm6286.1.2 switch=n enabled=y phases=2 Linecode=1P_UG_AL_1/0_Brenau_2

New Line.l(r:p1udt1631lv-p1ulv8159) Units=km Length=0.0183901 bus1=p1udt1631lv.1.2 bus2=p1ulv8159.1.2 switch=n enabled=y phases=2 Linecode=1P_UG_AL_2/0_Converse_2

New Line.l(r:p1udt1635lv-p1ulv8168) Units=km Length=0.0158506 bus1=p1udt1635lv.1.2 bus2=p1ulv8168.1.2 switch=n enabled=y phases=2 Linecode=1P_UG_AL_1/0_Brenau_2

New Line.l(r:p1udm7306-p1ulv8171) Units=km Length=0.014697 bus1=p1udm7306.1.2 bus2=p1ulv8171.1.2 switch=n enabled=y phases=2 Linecode=1P_UG_AL_1/0_Brenau_2

New Line.l(r:p1udm7306-p1udt1637lv) Units=km Length=0.0197557 bus1=p1udt1637lv.1.2 bus2=p1udm7306.1.2 switch=n enabled=y phases=2 Linecode=1P_UG_AL_1/0_Brenau_2

New Line.l(r:p1udm7307-p1ulv8172) Units=km Length=0.026612900000000002 bus1=p1udm7307.1.2 bus2=p1ulv8172.1.2 switch=n enabled=y phases=2 Linecode=1P_UG_AL_1/0_Brenau_2

New Line.l(r:p1udm7307-p1udt1637lv) Units=km Length=0.049538 bus1=p1udt1637lv.1.2 bus2=p1udm7307.1.2 switch=n enabled=y phases=2 Linecode=1P_UG_AL_1/0_Brenau_2

New Line.l(r:p1udm7314-p1ulv8178) Units=km Length=0.00641849 bus1=p1udm7314.1.2 bus2=p1ulv8178.1.2 switch=n enabled=y phases=2 Linecode=1P_UG_AL_4/0_Sweetbriar_2

New Line.l(r:p1udm7314-p1udt1642lv) Units=km Length=0.0192446 bus1=p1udt1642lv.1.2 bus2=p1udm7314.1.2 switch=n enabled=y phases=2 Linecode=1P_UG_AL_4/0_Sweetbriar_2

New Line.l(r:p1udm7315-p1ulv8182) Units=km Length=0.006525770000000001 bus1=p1udm7315.1.2 bus2=p1ulv8182.1.2 switch=n enabled=y phases=2 Linecode=1P_UG_AL_4/0_Sweetbriar_2

New Line.l(r:p1udm7315-p1udt1642lv) Units=km Length=0.00962352 bus1=p1udt1642lv.1.2 bus2=p1udm7315.1.2 switch=n enabled=y phases=2 Linecode=1P_UG_AL_4/0_Sweetbriar_2

New Line.l(r:p1udt1644lv-p1ulv8181) Units=km Length=0.007706 bus1=p1udt1644lv.1.2 bus2=p1ulv8181.1.2 switch=n enabled=y phases=2 Linecode=1P_UG_AL_4/0_Sweetbriar_2

New Line.l(r:p1udt1647lv-p1ulv8185) Units=km Length=0.0065033 bus1=p1udt1647lv.1.2 bus2=p1ulv8185.1.2 switch=n enabled=y phases=2 Linecode=1P_UG_AL_4/0_Sweetbriar_2

New Line.l(r:p1udt1648lv-p1ulv8187) Units=km Length=0.0136488 bus1=p1udt1648lv.1.2 bus2=p1ulv8187.1.2 switch=n enabled=y phases=2 Linecode=1P_UG_AL_1/0_Brenau_2

New Line.l(r:p1udt1649lv-p1ulv8188) Units=km Length=0.00618098 bus1=p1udt1649lv.1.2 bus2=p1ulv8188.1.2 switch=n enabled=y phases=2 Linecode=1P_UG_AL_4/0_Sweetbriar_2

New Line.l(r:p1udt1650lv-p1ulv8189) Units=km Length=0.0131924 bus1=p1udt1650lv.1.2 bus2=p1ulv8189.1.2 switch=n enabled=y phases=2 Linecode=1P_UG_AL_1/0_Brenau_2

New Line.l(r:p1udt1652lv-p1ulv8192) Units=km Length=0.0139526 bus1=p1udt1652lv.1.2 bus2=p1ulv8192.1.2 switch=n enabled=y phases=2 Linecode=1P_UG_AL_4/0_Sweetbriar_2

New Line.l(r:p1udt1657lv-p1ulv8197) Units=km Length=0.0252511 bus1=p1udt1657lv.1.2 bus2=p1ulv8197.1.2 switch=n enabled=y phases=2 Linecode=1P_OH_AL_2/0_Rucina_2

New Line.l(r:p1udt1661lv-p1ulv8201) Units=km Length=0.0780071 bus1=p1udt1661lv.1.2 bus2=p1ulv8201.1.2 switch=n enabled=y phases=2 Linecode=1P_OH_AL_4/0_Zuzara_2

New Line.l(r:p1udt1665lv-p1ulv8205) Units=km Length=0.0380146 bus1=p1udt1665lv.1.2 bus2=p1ulv8205.1.2 switch=n enabled=y phases=2 Linecode=1P_OH_AL_4/0_Zuzara_2

New Line.l(r:p1udt1666lv-p1ulv8206) Units=km Length=0.0154072 bus1=p1udt1666lv.1.2 bus2=p1ulv8206.1.2 switch=n enabled=y phases=2 Linecode=1P_UG_AL_1/0_Brenau_2

New Line.l(r:p1udt1667lv-p1ulv8207) Units=km Length=0.0131131 bus1=p1udt1667lv.1.2 bus2=p1ulv8207.1.2 switch=n enabled=y phases=2 Linecode=1P_UG_AL_1/0_Brenau_2

New Line.l(r:p1udt1668lv-p1ulv8208) Units=km Length=0.00618001 bus1=p1udt1668lv.1.2 bus2=p1ulv8208.1.2 switch=n enabled=y phases=2 Linecode=1P_OH_AL_2/0_Rucina_2

New Line.l(r:p1udt1673lv-p1ulv8213) Units=km Length=0.0120708 bus1=p1udt1673lv.1.2 bus2=p1ulv8213.1.2 switch=n enabled=y phases=2 Linecode=1P_UG_AL_4/0_Sweetbriar_2

New Line.l(r:p1udm7363-p1ulv8226) Units=km Length=0.00553828 bus1=p1udm7363.1.2 bus2=p1ulv8226.1.2 switch=n enabled=y phases=2 Linecode=1P_UG_AL_1/0_Brenau_2

New Line.l(r:p1udm7363-p1udt1682lv) Units=km Length=0.00958217 bus1=p1udt1682lv.1.2 bus2=p1udm7363.1.2 switch=n enabled=y phases=2 Linecode=1P_UG_AL_1/0_Brenau_2

New Line.l(r:p1udm7364-p1ulv8228) Units=km Length=0.008476140000000002 bus1=p1udm7364.1.2 bus2=p1ulv8228.1.2 switch=n enabled=y phases=2 Linecode=1P_UG_AL_1/0_Brenau_2

New Line.l(r:p1udm7364-p1udt1682lv) Units=km Length=0.00957911 bus1=p1udt1682lv.1.2 bus2=p1udm7364.1.2 switch=n enabled=y phases=2 Linecode=1P_UG_AL_1/0_Brenau_2

New Line.l(r:p1udt1683lv-p1ulv8227) Units=km Length=0.017002700000000003 bus1=p1udt1683lv.1.2 bus2=p1ulv8227.1.2 switch=n enabled=y phases=2 Linecode=1P_UG_AL_1/0_Brenau_2

New Line.l(r:p1udt1687lv-p1ulv8233) Units=km Length=0.0579509 bus1=p1udt1687lv.1.2 bus2=p1ulv8233.1.2 switch=n enabled=y phases=2 Linecode=1P_OH_AL_4/0_Zuzara_2

New Line.l(r:p1udt1688lv-p1ulv8235) Units=km Length=0.0229281 bus1=p1udt1688lv.1.2 bus2=p1ulv8235.1.2 switch=n enabled=y phases=2 Linecode=1P_OH_AL_2/0_Rucina_2

New Line.l(r:p1udm7370-p1ulv8234) Units=km Length=0.0126506 bus1=p1udm7370.1.2 bus2=p1ulv8234.1.2 switch=n enabled=y phases=2 Linecode=1P_OH_AL_2/0_Rucina_2

New Line.l(r:p1udm7370-p1udt1688lv) Units=km Length=0.0188436 bus1=p1udt1688lv.1.2 bus2=p1udm7370.1.2 switch=n enabled=y phases=2 Linecode=1P_OH_AL_2/0_Rucina_2

New Line.l(r:p1udm7372-p1ulv8236) Units=km Length=0.0268373 bus1=p1udm7372.1.2 bus2=p1ulv8236.1.2 switch=n enabled=y phases=2 Linecode=1P_OH_AL_2/0_Rucina_2

New Line.l(r:p1udm7372-p1udt1688lv) Units=km Length=0.0188436 bus1=p1udt1688lv.1.2 bus2=p1udm7372.1.2 switch=n enabled=y phases=2 Linecode=1P_OH_AL_2/0_Rucina_2

New Line.l(r:p1udt1689lv-p1ulv8238) Units=km Length=0.029998200000000003 bus1=p1udt1689lv.1.2 bus2=p1ulv8238.1.2 switch=n enabled=y phases=2 Linecode=1P_OH_AL_4/0_Zuzara_2

New Line.l(r:p1udm7375-p1ulv8240) Units=km Length=0.014589900000000001 bus1=p1udm7375.1.2 bus2=p1ulv8240.1.2 switch=n enabled=y phases=2 Linecode=1P_UG_AL_1/0_Brenau_2

New Line.l(r:p1udm7375-p1udt1691lv) Units=km Length=0.029867500000000005 bus1=p1udt1691lv.1.2 bus2=p1udm7375.1.2 switch=n enabled=y phases=2 Linecode=1P_UG_AL_1/0_Brenau_2

New Line.l(r:p1udm7376-p1ulv8241) Units=km Length=0.0184137 bus1=p1udm7376.1.2 bus2=p1ulv8241.1.2 switch=n enabled=y phases=2 Linecode=1P_UG_AL_1/0_Brenau_2

New Line.l(r:p1udm7376-p1ulv8242) Units=km Length=0.014772700000000001 bus1=p1udm7376.1.2 bus2=p1ulv8242.1.2 switch=n enabled=y phases=2 Linecode=1P_UG_AL_1/0_Brenau_2

New Line.l(r:p1udm7376-p1udt1691lv) Units=km Length=0.0199109 bus1=p1udt1691lv.1.2 bus2=p1udm7376.1.2 switch=n enabled=y phases=2 Linecode=1P_UG_AL_4/0_Sweetbriar_2

New Line.l(r:p1udt1698lv-p1ulv8251) Units=km Length=0.012701 bus1=p1udt1698lv.1.2 bus2=p1ulv8251.1.2 switch=n enabled=y phases=2 Linecode=1P_UG_AL_4/0_Sweetbriar_2

New Line.l(r:p1udt1699lv-p1ulv8252) Units=km Length=0.0432785 bus1=p1udt1699lv.1.2 bus2=p1ulv8252.1.2 switch=n enabled=y phases=2 Linecode=1P_UG_AL_1/0_Brenau_2

New Line.l(r:p1udm7550-p1ulv8548) Units=km Length=0.0173485 bus1=p1udm7550.1.2 bus2=p1ulv8548.1.2 switch=n enabled=y phases=2 Linecode=1P_UG_AL_4/0_Sweetbriar_2

New Line.l(r:p1udm7550-p1udt1819lv) Units=km Length=0.0091648 bus1=p1udt1819lv.1.2 bus2=p1udm7550.1.2 switch=n enabled=y phases=2 Linecode=1P_UG_AL_4/0_Sweetbriar_2

New Line.l(r:p1udm7551-p1ulv8549) Units=km Length=0.0421365 bus1=p1udm7551.1.2 bus2=p1ulv8549.1.2 switch=n enabled=y phases=2 Linecode=1P_UG_AL_1/0_Brenau_2

New Line.l(r:p1udm7551-p1udt1819lv) Units=km Length=0.0091676 bus1=p1udt1819lv.1.2 bus2=p1udm7551.1.2 switch=n enabled=y phases=2 Linecode=1P_UG_AL_1/0_Brenau_2

New Line.l(r:p1udt1312-p1udt1314) Units=km Length=0.0429435 bus1=p1udt1312-p1udt1314x.2 bus2=p1udt1314.2 switch=n enabled=y phases=1 Linecode=1P_OH_AL_ACSR_#2_Sparrow_1

New Line.l(r:p1udt1301-p1udt1305) Units=km Length=0.001 bus1=p1udt1301-p1udt1305xx.1 bus2=p1udt1301-p1udt1305xxx.1 switch=n enabled=y phases=1 Linecode=1P_UG_AL_1

New Line.l(r:p1udt1302-p1udt1309) Units=km Length=0.0747827 bus1=p1udt1302-p1udt1309x.3 bus2=p1udt1302-p1udt1309xx.3 switch=n enabled=y phases=1 Linecode=1P_UG_AL_1

New Line.l(r:p1udt1302-p1udt1311) Units=km Length=0.0377188 bus1=p1udt1311.3 bus2=p1udt1302.3 switch=n enabled=y phases=1 Linecode=1P_OH_AL_ACSR_#2_Sparrow_1

New Line.l(r:p1udt1311-p1udt1316) Units=km Length=0.07220100000000002 bus1=p1udt1311-p1udt1316x.3 bus2=p1udt1311.3 switch=n enabled=y phases=1 Linecode=1P_OH_AL_ACSR_#2_Sparrow_1

New Line.l(r:p1udt1631-p1udt1635) Units=km Length=0.0775387 bus1=p1udt1631-p1udt1635xx.1 bus2=p1udt1631-p1udt1635x.1 switch=n enabled=y phases=1 Linecode=1P_UG_AL_1

New Line.l(r:p1udt1321-p1udt1635) Units=km Length=0.009684960000000001 bus1=p1udt1321-p1udt1635xx.1 bus2=p1udt1321-p1udt1635xxx.1 switch=n enabled=y phases=1 Linecode=1P_UG_AL_1

New Line.l(r:p1udt1304-p1udt1306) Units=km Length=0.0701272 bus1=p1udt1304-p1udt1306xx.3 bus2=p1udt1304-p1udt1306x.3 switch=n enabled=y phases=1 Linecode=1P_UG_AL_1

New Line.l(r:p1udt1306-p1udt1645) Units=km Length=0.0636837 bus1=p1udt1306-p1udt1645xx.3 bus2=p1udt1306-p1udt1645x.3 switch=n enabled=y phases=1 Linecode=1P_UG_AL_1

New Line.l(r:p1udt1307-p1udt1645) Units=km Length=0.0675133 bus1=p1udt1307-p1udt1645xx.1 bus2=p1udt1307-p1udt1645x.1 switch=n enabled=y phases=1 Linecode=1P_UG_AL_1

New Line.l(r:p1udt1299-p1udt1642) Units=km Length=0.0577223 bus1=p1udt1299-p1udt1642xx.1 bus2=p1udt1299-p1udt1642x.1 switch=n enabled=y phases=1 Linecode=1P_UG_AL_1

New Line.l(r:p1udt1642-p1udt1647) Units=km Length=0.048093 bus1=p1udt1642-p1udt1647xx.1 bus2=p1udt1642-p1udt1647x.1 switch=n enabled=y phases=1 Linecode=1P_UG_AL_1

New Line.l(r:p1udt1647-p1udt1649) Units=km Length=0.0384834 bus1=p1udt1647-p1udt1649xx.1 bus2=p1udt1647-p1udt1649x.1 switch=n enabled=y phases=1 Linecode=1P_UG_AL_1

New Line.l(r:p1udt1648-p1udt1649) Units=km Length=0.144107 bus1=p1udt1648-p1udt1649xx.1 bus2=p1udt1648-p1udt1649xxx.1 switch=n enabled=y phases=1 Linecode=1P_UG_AL_1

New Line.l(r:p1udt1652-p1udt1666) Units=km Length=0.018332 bus1=p1udt1652-p1udt1666xx.2 bus2=p1udt1652-p1udt1666x.2 switch=n enabled=y phases=1 Linecode=1P_UG_AL_1

New Line.l(r:p1udt1666-p1udt1671) Units=km Length=0.180692 bus1=p1udt1666-p1udt1671xx.2 bus2=p1udt1666-p1udt1671x.2 switch=n enabled=y phases=1 Linecode=1P_UG_AL_1

New Line.l(r:p1udt1653-p1udt1657) Units=km Length=0.001 bus1=p1udt1653-p1udt1657x.1 bus2=p1udt1657.1 switch=n enabled=y phases=1 Linecode=1P_OH_AL_ACSR_#2_Sparrow_1

New Line.l(r:p1udt1664-p1udt1667) Units=km Length=0.0661406 bus1=p1udt1664-p1udt1667xx.2 bus2=p1udt1664-p1udt1667xxx.2 switch=n enabled=y phases=1 Linecode=1P_UG_AL_1

New Line.l(r:p1udt1681-p1udt1689) Units=km Length=0.14456 bus1=p1udt1681-p1udt1689x.2 bus2=p1udt1689.2 switch=n enabled=y phases=1 Linecode=1P_OH_AL_ACSR_#2_Sparrow_1

New Line.l(r:p1udt1682-p1udt1819) Units=km Length=0.254267 bus1=p1udt1682-p1udt1819xx.1.2.3 bus2=p1udt1682-p1udt1819x.1.2.3 switch=n enabled=y phases=3 Linecode=3P_UG_AL_350kcmil_3

New Line.l(r:p1udt1678-p1udt1819) Units=km Length=0.186489 bus1=p1udt1678-p1udt1819x.1.2.3 bus2=p1udt1678-p1udt1819xx.1.2.3 switch=n enabled=y phases=3 Linecode=3P_UG_AL_500kcmil_3

New Line.l(r:p1udt1678-p1udt1694) Units=km Length=0.0395669 bus1=p1udt1678-p1udt1694xx.1.2.3 bus2=p1udt1678-p1udt1694x.1.2.3 switch=n enabled=y phases=3 Linecode=3P_UG_AL_500kcmil_3
