New Load.load_p1ulv3737 conn=wye bus1=p1ulv3737.1.2.3 kV=0.48 Vminpu=0.8 Vmaxpu=1.2 model=1 kW=69.86896654972594 kvar=7.634715469785231 Phases=3 !yearly=com_kw_17729_pu

New Load.load_p1ulv6230 conn=wye bus1=p1ulv6230.1.2.3 kV=0.48 Vminpu=0.8 Vmaxpu=1.2 model=1 kW=138.68309035097136 kvar=38.625947042112806 Phases=3 !yearly=com_kw_17900_pu

New Load.load_p1ulv6234 conn=wye bus1=p1ulv6234.1.2.3 kV=0.48 Vminpu=0.8 Vmaxpu=1.2 model=1 kW=59.91142347536836 kvar=11.091921506065816 Phases=3 !yearly=res_kw_11357_pu

New Load.load_p1ulv6235 conn=wye bus1=p1ulv6235.1.2.3 kV=0.48 Vminpu=0.8 Vmaxpu=1.2 model=1 kW=28.24252962836231 kvar=7.423799259546547 Phases=3 !yearly=com_kw_29597_pu

New Load.load_p1ulv6236 conn=wye bus1=p1ulv6236.1.2.3 kV=0.48 Vminpu=0.8 Vmaxpu=1.2 model=1 kW=155.8097168846957 kvar=43.00228942982968 Phases=3 !yearly=com_kw_1077_pu

New Load.load_p1ulv6237 conn=wye bus1=p1ulv6237.1.2.3 kV=0.48 Vminpu=0.8 Vmaxpu=1.2 model=1 kW=290.4801373313237 kvar=79.21913235765372 Phases=3 !yearly=com_kw_20999_pu

New Load.load_p1ulv6410 conn=wye bus1=p1ulv6410.1.2.3 kV=0.48 Vminpu=0.8 Vmaxpu=1.2 model=1 kW=54.66698569462315 kvar=14.797807910576623 Phases=3 !yearly=com_kw_39229_pu

New Load.load_p1ulv6411_1 conn=wye bus1=p1ulv6411.1 kV=0.12 Vminpu=0.8 Vmaxpu=1.2 model=1 kW=13.683682675103412 kvar=0.8107638335321283 Phases=1 !yearly=com_kw_29204_pu

New Load.load_p1ulv6411_2 conn=wye bus1=p1ulv6411.2 kV=0.12 Vminpu=0.8 Vmaxpu=1.2 model=1 kW=13.683682675103412 kvar=0.8107638335321283 Phases=1 !yearly=com_kw_29204_pu

New Load.load_p1ulv6412_1 conn=wye bus1=p1ulv6412.1 kV=0.12 Vminpu=0.8 Vmaxpu=1.2 model=1 kW=6.8112576152435595 kvar=1.4895982283440738 Phases=1 !yearly=com_kw_34399_pu

New Load.load_p1ulv6412_2 conn=wye bus1=p1ulv6412.2 kV=0.12 Vminpu=0.8 Vmaxpu=1.2 model=1 kW=6.8112576152435595 kvar=1.4895982283440738 Phases=1 !yearly=com_kw_34399_pu

New Load.load_p1ulv6413 conn=wye bus1=p1ulv6413.1.2.3 kV=0.48 Vminpu=0.8 Vmaxpu=1.2 model=1 kW=37.22446054941066 kvar=9.383800895810225 Phases=3 !yearly=res_kw_2815_pu

New Load.load_p1ulv6414_1 conn=wye bus1=p1ulv6414.1 kV=0.12 Vminpu=0.8 Vmaxpu=1.2 model=1 kW=1.7649182215460797 kvar=0.3776178787562615 Phases=1 !yearly=res_kw_4583_pu

New Load.load_p1ulv6414_2 conn=wye bus1=p1ulv6414.2 kV=0.12 Vminpu=0.8 Vmaxpu=1.2 model=1 kW=1.7649182215460797 kvar=0.3776178787562615 Phases=1 !yearly=res_kw_4583_pu

New Load.load_p1ulv6415_1 conn=wye bus1=p1ulv6415.1 kV=0.12 Vminpu=0.8 Vmaxpu=1.2 model=1 kW=2.606959916668558 kvar=0.5550307077474157 Phases=1 !yearly=com_kw_33605_pu

New Load.load_p1ulv6415_2 conn=wye bus1=p1ulv6415.2 kV=0.12 Vminpu=0.8 Vmaxpu=1.2 model=1 kW=2.606959916668558 kvar=0.5550307077474157 Phases=1 !yearly=com_kw_33605_pu

New Load.load_p1ulv6416_1 conn=wye bus1=p1ulv6416.1 kV=0.12 Vminpu=0.8 Vmaxpu=1.2 model=1 kW=1.764814259471277 kvar=1.0212911744702167 Phases=1 !yearly=res_kw_14718_pu

New Load.load_p1ulv6416_2 conn=wye bus1=p1ulv6416.2 kV=0.12 Vminpu=0.8 Vmaxpu=1.2 model=1 kW=1.764814259471277 kvar=1.0212911744702167 Phases=1 !yearly=res_kw_14718_pu

New Load.load_p1ulv6417_1 conn=wye bus1=p1ulv6417.1 kV=0.12 Vminpu=0.8 Vmaxpu=1.2 model=1 kW=3.0716753053645807 kvar=0.8046017922971841 Phases=1 !yearly=res_kw_1788_pu

New Load.load_p1ulv6417_2 conn=wye bus1=p1ulv6417.2 kV=0.12 Vminpu=0.8 Vmaxpu=1.2 model=1 kW=3.0716753053645807 kvar=0.8046017922971841 Phases=1 !yearly=res_kw_1788_pu

New Load.load_p1ulv6418_1 conn=wye bus1=p1ulv6417.1 kV=0.12 Vminpu=0.8 Vmaxpu=1.2 model=1 kW=1.416169496275576 kvar=0.5935558111042385 Phases=1 !yearly=res_kw_5238_pu

New Load.load_p1ulv6418_2 conn=wye bus1=p1ulv6417.2 kV=0.12 Vminpu=0.8 Vmaxpu=1.2 model=1 kW=1.416169496275576 kvar=0.5935558111042385 Phases=1 !yearly=res_kw_5238_pu

New Load.load_p1ulv6419_1 conn=wye bus1=p1ulv6419.1 kV=0.12 Vminpu=0.8 Vmaxpu=1.2 model=1 kW=1.6756304436316105 kvar=0.651752290570944 Phases=1 !yearly=res_kw_14757_pu

New Load.load_p1ulv6419_2 conn=wye bus1=p1ulv6419.2 kV=0.12 Vminpu=0.8 Vmaxpu=1.2 model=1 kW=1.6756304436316105 kvar=0.651752290570944 Phases=1 !yearly=res_kw_14757_pu

New Load.load_p1ulv6420_1 conn=wye bus1=p1ulv6420.1 kV=0.12 Vminpu=0.8 Vmaxpu=1.2 model=1 kW=2.4879880944799684 kvar=1.0342200007039366 Phases=1 !yearly=res_kw_7375_pu

New Load.load_p1ulv6420_2 conn=wye bus1=p1ulv6420.2 kV=0.12 Vminpu=0.8 Vmaxpu=1.2 model=1 kW=2.4879880944799684 kvar=1.0342200007039366 Phases=1 !yearly=res_kw_7375_pu

New Load.load_p1ulv6421_1 conn=wye bus1=p1ulv6421.1 kV=0.12 Vminpu=0.8 Vmaxpu=1.2 model=1 kW=7.962995242471176 kvar=0.311767773277596 Phases=1 !yearly=res_kw_13292_pu

New Load.load_p1ulv6421_2 conn=wye bus1=p1ulv6421.2 kV=0.12 Vminpu=0.8 Vmaxpu=1.2 model=1 kW=7.962995242471176 kvar=0.311767773277596 Phases=1 !yearly=res_kw_13292_pu

New Load.load_p1ulv6422_1 conn=wye bus1=p1ulv6422.1 kV=0.12 Vminpu=0.8 Vmaxpu=1.2 model=1 kW=0.8620391392976878 kvar=0.2212458507077661 Phases=1 !yearly=res_kw_7030_pu

New Load.load_p1ulv6422_2 conn=wye bus1=p1ulv6422.2 kV=0.12 Vminpu=0.8 Vmaxpu=1.2 model=1 kW=0.8620391392976878 kvar=0.2212458507077661 Phases=1 !yearly=res_kw_7030_pu

New Load.load_p1ulv6423_1 conn=wye bus1=p1ulv6423.1 kV=0.12 Vminpu=0.8 Vmaxpu=1.2 model=1 kW=1.6444193556876874 kvar=0.3917617062318279 Phases=1 !yearly=res_kw_6810_pu

New Load.load_p1ulv6423_2 conn=wye bus1=p1ulv6423.2 kV=0.12 Vminpu=0.8 Vmaxpu=1.2 model=1 kW=1.6444193556876874 kvar=0.3917617062318279 Phases=1 !yearly=res_kw_6810_pu

New Load.load_p1ulv6424_1 conn=wye bus1=p1ulv6424.1 kV=0.12 Vminpu=0.8 Vmaxpu=1.2 model=1 kW=1.9858851321071265 kvar=0.6028452176672948 Phases=1 !yearly=res_kw_13597_pu

New Load.load_p1ulv6424_2 conn=wye bus1=p1ulv6424.2 kV=0.12 Vminpu=0.8 Vmaxpu=1.2 model=1 kW=1.9858851321071265 kvar=0.6028452176672948 Phases=1 !yearly=res_kw_13597_pu

New Load.load_p1ulv6425_1 conn=wye bus1=p1ulv6424.1 kV=0.12 Vminpu=0.8 Vmaxpu=1.2 model=1 kW=3.3480679486659737 kvar=0.1241770602848328 Phases=1 !yearly=res_kw_3437_pu

New Load.load_p1ulv6425_2 conn=wye bus1=p1ulv6424.2 kV=0.12 Vminpu=0.8 Vmaxpu=1.2 model=1 kW=3.3480679486659737 kvar=0.1241770602848328 Phases=1 !yearly=res_kw_3437_pu

New Load.load_p1ulv6426_1 conn=wye bus1=p1ulv6426.1 kV=0.12 Vminpu=0.8 Vmaxpu=1.2 model=1 kW=2.568071601997735 kvar=0.9996314727632699 Phases=1 !yearly=res_kw_12178_pu

New Load.load_p1ulv6426_2 conn=wye bus1=p1ulv6426.2 kV=0.12 Vminpu=0.8 Vmaxpu=1.2 model=1 kW=2.568071601997735 kvar=0.9996314727632699 Phases=1 !yearly=res_kw_12178_pu

New Load.load_p1ulv6427_1 conn=wye bus1=p1ulv6427.1 kV=0.12 Vminpu=0.8 Vmaxpu=1.2 model=1 kW=2.099270565728903 kvar=0.6035683835749337 Phases=1 !yearly=res_kw_8495_pu

New Load.load_p1ulv6427_2 conn=wye bus1=p1ulv6427.2 kV=0.12 Vminpu=0.8 Vmaxpu=1.2 model=1 kW=2.099270565728903 kvar=0.6035683835749337 Phases=1 !yearly=res_kw_8495_pu

New Load.load_p1ulv6428_1 conn=wye bus1=p1ulv6428.1 kV=0.12 Vminpu=0.8 Vmaxpu=1.2 model=1 kW=1.2162240825393356 kvar=0.47013804182089236 Phases=1 !yearly=res_kw_1191_pu

New Load.load_p1ulv6428_2 conn=wye bus1=p1ulv6428.2 kV=0.12 Vminpu=0.8 Vmaxpu=1.2 model=1 kW=1.2162240825393356 kvar=0.47013804182089236 Phases=1 !yearly=res_kw_1191_pu

New Load.load_p1ulv6429_1 conn=wye bus1=p1ulv6429.1 kV=0.12 Vminpu=0.8 Vmaxpu=1.2 model=1 kW=8.327080357562105 kvar=0.8869273803925216 Phases=1 !yearly=res_kw_5344_pu

New Load.load_p1ulv6429_2 conn=wye bus1=p1ulv6429.2 kV=0.12 Vminpu=0.8 Vmaxpu=1.2 model=1 kW=8.327080357562105 kvar=0.8869273803925216 Phases=1 !yearly=res_kw_5344_pu

New Load.load_p1ulv6430_1 conn=wye bus1=p1ulv6430.1 kV=0.12 Vminpu=0.8 Vmaxpu=1.2 model=1 kW=1.762624481562084 kvar=0.7309848972048884 Phases=1 !yearly=res_kw_12300_pu

New Load.load_p1ulv6430_2 conn=wye bus1=p1ulv6430.2 kV=0.12 Vminpu=0.8 Vmaxpu=1.2 model=1 kW=1.762624481562084 kvar=0.7309848972048884 Phases=1 !yearly=res_kw_12300_pu

New Load.load_p1ulv6431_1 conn=wye bus1=p1ulv6431.1 kV=0.12 Vminpu=0.8 Vmaxpu=1.2 model=1 kW=2.4879880944799684 kvar=1.0342200007039366 Phases=1 !yearly=res_kw_7375_pu

New Load.load_p1ulv6431_2 conn=wye bus1=p1ulv6431.2 kV=0.12 Vminpu=0.8 Vmaxpu=1.2 model=1 kW=2.4879880944799684 kvar=1.0342200007039366 Phases=1 !yearly=res_kw_7375_pu

New Load.load_p1ulv6432_1 conn=wye bus1=p1ulv6432.1 kV=0.12 Vminpu=0.8 Vmaxpu=1.2 model=1 kW=4.68234026202661 kvar=1.3514340498352824 Phases=1 !yearly=res_kw_1139_pu

New Load.load_p1ulv6432_2 conn=wye bus1=p1ulv6432.2 kV=0.12 Vminpu=0.8 Vmaxpu=1.2 model=1 kW=4.68234026202661 kvar=1.3514340498352824 Phases=1 !yearly=res_kw_1139_pu

New Load.load_p1ulv6433_1 conn=wye bus1=p1ulv6432.1 kV=0.12 Vminpu=0.8 Vmaxpu=1.2 model=1 kW=5.810132764673673 kvar=0.37076490271254653 Phases=1 !yearly=res_kw_10343_pu

New Load.load_p1ulv6433_2 conn=wye bus1=p1ulv6432.2 kV=0.12 Vminpu=0.8 Vmaxpu=1.2 model=1 kW=5.810132764673673 kvar=0.37076490271254653 Phases=1 !yearly=res_kw_10343_pu

New Load.load_p1ulv6434_1 conn=wye bus1=p1ulv6434.1 kV=0.12 Vminpu=0.8 Vmaxpu=1.2 model=1 kW=2.7727849043905786 kvar=1.0260854814945166 Phases=1 !yearly=res_kw_12902_pu

New Load.load_p1ulv6434_2 conn=wye bus1=p1ulv6434.2 kV=0.12 Vminpu=0.8 Vmaxpu=1.2 model=1 kW=2.7727849043905786 kvar=1.0260854814945166 Phases=1 !yearly=res_kw_12902_pu

New Load.load_p1ulv6435_1 conn=wye bus1=p1ulv6434.1 kV=0.12 Vminpu=0.8 Vmaxpu=1.2 model=1 kW=2.7727849043905786 kvar=1.0260854814945166 Phases=1 !yearly=res_kw_12902_pu

New Load.load_p1ulv6435_2 conn=wye bus1=p1ulv6434.2 kV=0.12 Vminpu=0.8 Vmaxpu=1.2 model=1 kW=2.7727849043905786 kvar=1.0260854814945166 Phases=1 !yearly=res_kw_12902_pu

New Load.load_p1ulv6436_1 conn=wye bus1=p1ulv6436.1 kV=0.12 Vminpu=0.8 Vmaxpu=1.2 model=1 kW=5.678900054512627 kvar=0.2757046368675722 Phases=1 !yearly=res_kw_4488_pu

New Load.load_p1ulv6436_2 conn=wye bus1=p1ulv6436.2 kV=0.12 Vminpu=0.8 Vmaxpu=1.2 model=1 kW=5.678900054512627 kvar=0.2757046368675722 Phases=1 !yearly=res_kw_4488_pu

New Load.load_p1ulv6437_1 conn=wye bus1=p1ulv6437.1 kV=0.12 Vminpu=0.8 Vmaxpu=1.2 model=1 kW=2.7824790410094207 kvar=0.5677208189342347 Phases=1 !yearly=res_kw_6623_pu

New Load.load_p1ulv6437_2 conn=wye bus1=p1ulv6437.2 kV=0.12 Vminpu=0.8 Vmaxpu=1.2 model=1 kW=2.7824790410094207 kvar=0.5677208189342347 Phases=1 !yearly=res_kw_6623_pu

New Load.load_p1ulv6438_1 conn=wye bus1=p1ulv6438.1 kV=0.12 Vminpu=0.8 Vmaxpu=1.2 model=1 kW=1.2634835175663737 kvar=0.48825638889955375 Phases=1 !yearly=res_kw_2470_pu

New Load.load_p1ulv6438_2 conn=wye bus1=p1ulv6438.2 kV=0.12 Vminpu=0.8 Vmaxpu=1.2 model=1 kW=1.2634835175663737 kvar=0.48825638889955375 Phases=1 !yearly=res_kw_2470_pu

New Load.load_p1ulv6439_1 conn=wye bus1=p1ulv6439.1 kV=0.12 Vminpu=0.8 Vmaxpu=1.2 model=1 kW=8.327080357562105 kvar=0.8869273803925216 Phases=1 !yearly=res_kw_5344_pu

New Load.load_p1ulv6439_2 conn=wye bus1=p1ulv6439.2 kV=0.12 Vminpu=0.8 Vmaxpu=1.2 model=1 kW=8.327080357562105 kvar=0.8869273803925216 Phases=1 !yearly=res_kw_5344_pu

New Load.load_p1ulv6440_1 conn=wye bus1=p1ulv6440.1 kV=0.12 Vminpu=0.8 Vmaxpu=1.2 model=1 kW=2.606959916668558 kvar=0.5550307077474157 Phases=1 !yearly=com_kw_33605_pu

New Load.load_p1ulv6440_2 conn=wye bus1=p1ulv6440.2 kV=0.12 Vminpu=0.8 Vmaxpu=1.2 model=1 kW=2.606959916668558 kvar=0.5550307077474157 Phases=1 !yearly=com_kw_33605_pu

New Load.load_p1ulv6441_1 conn=wye bus1=p1ulv6440.1 kV=0.12 Vminpu=0.8 Vmaxpu=1.2 model=1 kW=1.1024311883264026 kvar=0.3929988371277374 Phases=1 !yearly=res_kw_5148_pu

New Load.load_p1ulv6441_2 conn=wye bus1=p1ulv6440.2 kV=0.12 Vminpu=0.8 Vmaxpu=1.2 model=1 kW=1.1024311883264026 kvar=0.3929988371277374 Phases=1 !yearly=res_kw_5148_pu

New Load.load_p1ulv6442_1 conn=wye bus1=p1ulv6442.1 kV=0.12 Vminpu=0.8 Vmaxpu=1.2 model=1 kW=4.2946069003426 kvar=0.8474835414683014 Phases=1 !yearly=res_kw_9291_pu

New Load.load_p1ulv6442_2 conn=wye bus1=p1ulv6442.2 kV=0.12 Vminpu=0.8 Vmaxpu=1.2 model=1 kW=4.2946069003426 kvar=0.8474835414683014 Phases=1 !yearly=res_kw_9291_pu

New Load.load_p1ulv6443_1 conn=wye bus1=p1ulv6443.1 kV=0.12 Vminpu=0.8 Vmaxpu=1.2 model=1 kW=1.461994566439758 kvar=0.9672192462530528 Phases=1 !yearly=res_kw_1353_pu

New Load.load_p1ulv6443_2 conn=wye bus1=p1ulv6443.2 kV=0.12 Vminpu=0.8 Vmaxpu=1.2 model=1 kW=1.461994566439758 kvar=0.9672192462530528 Phases=1 !yearly=res_kw_1353_pu

New Load.load_p1ulv6444_1 conn=wye bus1=p1ulv6444.1 kV=0.12 Vminpu=0.8 Vmaxpu=1.2 model=1 kW=4.096838644473719 kvar=0.3876192860701033 Phases=1 !yearly=res_kw_7424_pu

New Load.load_p1ulv6444_2 conn=wye bus1=p1ulv6444.2 kV=0.12 Vminpu=0.8 Vmaxpu=1.2 model=1 kW=4.096838644473719 kvar=0.3876192860701033 Phases=1 !yearly=res_kw_7424_pu

New Load.load_p1ulv6445_1 conn=wye bus1=p1ulv6445.1 kV=0.12 Vminpu=0.8 Vmaxpu=1.2 model=1 kW=10.733638061317262 kvar=2.0348836896858478 Phases=1 !yearly=res_kw_13250_pu

New Load.load_p1ulv6445_2 conn=wye bus1=p1ulv6445.2 kV=0.12 Vminpu=0.8 Vmaxpu=1.2 model=1 kW=10.733638061317262 kvar=2.0348836896858478 Phases=1 !yearly=res_kw_13250_pu

New Load.load_p1ulv6446_1 conn=wye bus1=p1ulv6445.1 kV=0.12 Vminpu=0.8 Vmaxpu=1.2 model=1 kW=1.95674953024034 kvar=0.4660234137765725 Phases=1 !yearly=res_kw_9799_pu

New Load.load_p1ulv6446_2 conn=wye bus1=p1ulv6445.2 kV=0.12 Vminpu=0.8 Vmaxpu=1.2 model=1 kW=1.95674953024034 kvar=0.4660234137765725 Phases=1 !yearly=res_kw_9799_pu

New Load.load_p1ulv6447_1 conn=wye bus1=p1ulv6447.1 kV=0.12 Vminpu=0.8 Vmaxpu=1.2 model=1 kW=1.5539156587657554 kvar=0.6092612784831468 Phases=1 !yearly=res_kw_2844_pu

New Load.load_p1ulv6447_2 conn=wye bus1=p1ulv6447.2 kV=0.12 Vminpu=0.8 Vmaxpu=1.2 model=1 kW=1.5539156587657554 kvar=0.6092612784831468 Phases=1 !yearly=res_kw_2844_pu

New Load.load_p1ulv6448_1 conn=wye bus1=p1ulv6448.1 kV=0.12 Vminpu=0.8 Vmaxpu=1.2 model=1 kW=0.6031448937508913 kvar=0.360904541251208 Phases=1 !yearly=res_kw_13489_pu

New Load.load_p1ulv6448_2 conn=wye bus1=p1ulv6448.2 kV=0.12 Vminpu=0.8 Vmaxpu=1.2 model=1 kW=0.6031448937508913 kvar=0.360904541251208 Phases=1 !yearly=res_kw_13489_pu

New Load.load_p1ulv6449_1 conn=wye bus1=p1ulv6449.1 kV=0.12 Vminpu=0.8 Vmaxpu=1.2 model=1 kW=1.9913603837135423 kvar=0.6878897359041518 Phases=1 !yearly=res_kw_6081_pu

New Load.load_p1ulv6449_2 conn=wye bus1=p1ulv6449.2 kV=0.12 Vminpu=0.8 Vmaxpu=1.2 model=1 kW=1.9913603837135423 kvar=0.6878897359041518 Phases=1 !yearly=res_kw_6081_pu

New Load.load_p1ulv6450_1 conn=wye bus1=p1ulv6450.1 kV=0.12 Vminpu=0.8 Vmaxpu=1.2 model=1 kW=2.7405726618177377 kvar=0.26510780348327356 Phases=1 !yearly=res_kw_13715_pu

New Load.load_p1ulv6450_2 conn=wye bus1=p1ulv6450.2 kV=0.12 Vminpu=0.8 Vmaxpu=1.2 model=1 kW=2.7405726618177377 kvar=0.26510780348327356 Phases=1 !yearly=res_kw_13715_pu

New Load.load_p1ulv6451_1 conn=wye bus1=p1ulv6450.1 kV=0.12 Vminpu=0.8 Vmaxpu=1.2 model=1 kW=0.8540103839542617 kvar=0.3619237585140689 Phases=1 !yearly=res_kw_4896_pu

New Load.load_p1ulv6451_2 conn=wye bus1=p1ulv6450.2 kV=0.12 Vminpu=0.8 Vmaxpu=1.2 model=1 kW=0.8540103839542617 kvar=0.3619237585140689 Phases=1 !yearly=res_kw_4896_pu

New Load.load_p1ulv6452_1 conn=wye bus1=p1ulv6452.1 kV=0.12 Vminpu=0.8 Vmaxpu=1.2 model=1 kW=5.810132764673673 kvar=0.37076490271254653 Phases=1 !yearly=res_kw_10343_pu

New Load.load_p1ulv6452_2 conn=wye bus1=p1ulv6452.2 kV=0.12 Vminpu=0.8 Vmaxpu=1.2 model=1 kW=5.810132764673673 kvar=0.37076490271254653 Phases=1 !yearly=res_kw_10343_pu

New Load.load_p1ulv6453_1 conn=wye bus1=p1ulv6453.1 kV=0.12 Vminpu=0.8 Vmaxpu=1.2 model=1 kW=2.9257901181409576 kvar=1.0928573870023612 Phases=1 !yearly=res_kw_937_pu

New Load.load_p1ulv6453_2 conn=wye bus1=p1ulv6453.2 kV=0.12 Vminpu=0.8 Vmaxpu=1.2 model=1 kW=2.9257901181409576 kvar=1.0928573870023612 Phases=1 !yearly=res_kw_937_pu

New Load.load_p1ulv6454_1 conn=wye bus1=p1ulv6454.1 kV=0.12 Vminpu=0.8 Vmaxpu=1.2 model=1 kW=1.5539156587657554 kvar=0.6092612784831468 Phases=1 !yearly=res_kw_2844_pu

New Load.load_p1ulv6454_2 conn=wye bus1=p1ulv6454.2 kV=0.12 Vminpu=0.8 Vmaxpu=1.2 model=1 kW=1.5539156587657554 kvar=0.6092612784831468 Phases=1 !yearly=res_kw_2844_pu

New Load.load_p1ulv6455_1 conn=wye bus1=p1ulv6455.1 kV=0.12 Vminpu=0.8 Vmaxpu=1.2 model=1 kW=1.3269645363150677 kvar=0.5800133371554559 Phases=1 !yearly=res_kw_10702_pu

New Load.load_p1ulv6455_2 conn=wye bus1=p1ulv6455.2 kV=0.12 Vminpu=0.8 Vmaxpu=1.2 model=1 kW=1.3269645363150677 kvar=0.5800133371554559 Phases=1 !yearly=res_kw_10702_pu

New Load.load_p1ulv6456_1 conn=wye bus1=p1ulv6456.1 kV=0.12 Vminpu=0.8 Vmaxpu=1.2 model=1 kW=0.8397295380963891 kvar=0.3776042759641385 Phases=1 !yearly=res_kw_4732_pu

New Load.load_p1ulv6456_2 conn=wye bus1=p1ulv6456.2 kV=0.12 Vminpu=0.8 Vmaxpu=1.2 model=1 kW=0.8397295380963891 kvar=0.3776042759641385 Phases=1 !yearly=res_kw_4732_pu

New Load.load_p1ulv6457_1 conn=wye bus1=p1ulv6456.1 kV=0.12 Vminpu=0.8 Vmaxpu=1.2 model=1 kW=1.8654332606156183 kvar=0.8213449665471398 Phases=1 !yearly=res_kw_4399_pu

New Load.load_p1ulv6457_2 conn=wye bus1=p1ulv6456.2 kV=0.12 Vminpu=0.8 Vmaxpu=1.2 model=1 kW=1.8654332606156183 kvar=0.8213449665471398 Phases=1 !yearly=res_kw_4399_pu

New Load.load_p1ulv6458_1 conn=wye bus1=p1ulv6458.1 kV=0.12 Vminpu=0.8 Vmaxpu=1.2 model=1 kW=1.2162240825393356 kvar=0.47013804182089236 Phases=1 !yearly=res_kw_1191_pu

New Load.load_p1ulv6458_2 conn=wye bus1=p1ulv6458.2 kV=0.12 Vminpu=0.8 Vmaxpu=1.2 model=1 kW=1.2162240825393356 kvar=0.47013804182089236 Phases=1 !yearly=res_kw_1191_pu

New Load.load_p1ulv6459_1 conn=wye bus1=p1ulv6459.1 kV=0.12 Vminpu=0.8 Vmaxpu=1.2 model=1 kW=1.6756304436316105 kvar=0.651752290570944 Phases=1 !yearly=res_kw_14757_pu

New Load.load_p1ulv6459_2 conn=wye bus1=p1ulv6459.2 kV=0.12 Vminpu=0.8 Vmaxpu=1.2 model=1 kW=1.6756304436316105 kvar=0.651752290570944 Phases=1 !yearly=res_kw_14757_pu

New Load.load_p1ulv6460_1 conn=wye bus1=p1ulv6460.1 kV=0.12 Vminpu=0.8 Vmaxpu=1.2 model=1 kW=1.4409963787260254 kvar=0.41567269800484963 Phases=1 !yearly=res_kw_9964_pu

New Load.load_p1ulv6460_2 conn=wye bus1=p1ulv6460.2 kV=0.12 Vminpu=0.8 Vmaxpu=1.2 model=1 kW=1.4409963787260254 kvar=0.41567269800484963 Phases=1 !yearly=res_kw_9964_pu

New Load.load_p1ulv6461_1 conn=wye bus1=p1ulv6461.1 kV=0.12 Vminpu=0.8 Vmaxpu=1.2 model=1 kW=3.7760027060534154 kvar=0.2737707084742393 Phases=1 !yearly=res_kw_8030_pu

New Load.load_p1ulv6461_2 conn=wye bus1=p1ulv6461.2 kV=0.12 Vminpu=0.8 Vmaxpu=1.2 model=1 kW=3.7760027060534154 kvar=0.2737707084742393 Phases=1 !yearly=res_kw_8030_pu

New Load.load_p1ulv6462_1 conn=wye bus1=p1ulv6462.1 kV=0.12 Vminpu=0.8 Vmaxpu=1.2 model=1 kW=1.9913603837135423 kvar=0.6878897359041518 Phases=1 !yearly=res_kw_6081_pu

New Load.load_p1ulv6462_2 conn=wye bus1=p1ulv6462.2 kV=0.12 Vminpu=0.8 Vmaxpu=1.2 model=1 kW=1.9913603837135423 kvar=0.6878897359041518 Phases=1 !yearly=res_kw_6081_pu

New Load.load_p1ulv6463_1 conn=wye bus1=p1ulv6462.1 kV=0.12 Vminpu=0.8 Vmaxpu=1.2 model=1 kW=2.099270565728903 kvar=0.6035683835749337 Phases=1 !yearly=res_kw_8495_pu

New Load.load_p1ulv6463_2 conn=wye bus1=p1ulv6462.2 kV=0.12 Vminpu=0.8 Vmaxpu=1.2 model=1 kW=2.099270565728903 kvar=0.6035683835749337 Phases=1 !yearly=res_kw_8495_pu

New Load.load_p1ulv6464_1 conn=wye bus1=p1ulv6461.1 kV=0.12 Vminpu=0.8 Vmaxpu=1.2 model=1 kW=1.2162240825393356 kvar=0.47013804182089236 Phases=1 !yearly=res_kw_1191_pu

New Load.load_p1ulv6464_2 conn=wye bus1=p1ulv6461.2 kV=0.12 Vminpu=0.8 Vmaxpu=1.2 model=1 kW=1.2162240825393356 kvar=0.47013804182089236 Phases=1 !yearly=res_kw_1191_pu

New Load.load_p1ulv6465_1 conn=wye bus1=p1ulv6465.1 kV=0.12 Vminpu=0.8 Vmaxpu=1.2 model=1 kW=3.7760027060534154 kvar=0.2737707084742393 Phases=1 !yearly=res_kw_8030_pu

New Load.load_p1ulv6465_2 conn=wye bus1=p1ulv6465.2 kV=0.12 Vminpu=0.8 Vmaxpu=1.2 model=1 kW=3.7760027060534154 kvar=0.2737707084742393 Phases=1 !yearly=res_kw_8030_pu

New Load.load_p1ulv6466_1 conn=wye bus1=p1ulv6466.1 kV=0.12 Vminpu=0.8 Vmaxpu=1.2 model=1 kW=1.416169496275576 kvar=0.5935558111042385 Phases=1 !yearly=res_kw_5238_pu

New Load.load_p1ulv6466_2 conn=wye bus1=p1ulv6466.2 kV=0.12 Vminpu=0.8 Vmaxpu=1.2 model=1 kW=1.416169496275576 kvar=0.5935558111042385 Phases=1 !yearly=res_kw_5238_pu

New Load.load_p1ulv6467_1 conn=wye bus1=p1ulv6467.1 kV=0.12 Vminpu=0.8 Vmaxpu=1.2 model=1 kW=1.2162240825393356 kvar=0.47013804182089236 Phases=1 !yearly=res_kw_1191_pu

New Load.load_p1ulv6467_2 conn=wye bus1=p1ulv6467.2 kV=0.12 Vminpu=0.8 Vmaxpu=1.2 model=1 kW=1.2162240825393356 kvar=0.47013804182089236 Phases=1 !yearly=res_kw_1191_pu

New Load.load_p1ulv6468_1 conn=wye bus1=p1ulv6468.1 kV=0.12 Vminpu=0.8 Vmaxpu=1.2 model=1 kW=2.906110900807904 kvar=0.7339262719933625 Phases=1 !yearly=res_kw_1963_pu

New Load.load_p1ulv6468_2 conn=wye bus1=p1ulv6468.2 kV=0.12 Vminpu=0.8 Vmaxpu=1.2 model=1 kW=2.906110900807904 kvar=0.7339262719933625 Phases=1 !yearly=res_kw_1963_pu

New Load.load_p1ulv6469_1 conn=wye bus1=p1ulv6469.1 kV=0.12 Vminpu=0.8 Vmaxpu=1.2 model=1 kW=2.606959916668558 kvar=0.5550307077474157 Phases=1 !yearly=com_kw_33605_pu

New Load.load_p1ulv6469_2 conn=wye bus1=p1ulv6469.2 kV=0.12 Vminpu=0.8 Vmaxpu=1.2 model=1 kW=2.606959916668558 kvar=0.5550307077474157 Phases=1 !yearly=com_kw_33605_pu

New Load.load_p1ulv6470_1 conn=wye bus1=p1ulv6470.1 kV=0.12 Vminpu=0.8 Vmaxpu=1.2 model=1 kW=2.606959916668558 kvar=0.5550307077474157 Phases=1 !yearly=com_kw_33605_pu

New Load.load_p1ulv6470_2 conn=wye bus1=p1ulv6470.2 kV=0.12 Vminpu=0.8 Vmaxpu=1.2 model=1 kW=2.606959916668558 kvar=0.5550307077474157 Phases=1 !yearly=com_kw_33605_pu

New Load.load_p1ulv6471_1 conn=wye bus1=p1ulv6471.1 kV=0.12 Vminpu=0.8 Vmaxpu=1.2 model=1 kW=3.4114307704659868 kvar=0.4353967527695508 Phases=1 !yearly=res_kw_9878_pu

New Load.load_p1ulv6471_2 conn=wye bus1=p1ulv6471.2 kV=0.12 Vminpu=0.8 Vmaxpu=1.2 model=1 kW=3.4114307704659868 kvar=0.4353967527695508 Phases=1 !yearly=res_kw_9878_pu

New Load.load_p1ulv6472_1 conn=wye bus1=p1ulv6471.1 kV=0.12 Vminpu=0.8 Vmaxpu=1.2 model=1 kW=1.5539156587657554 kvar=0.6092612784831468 Phases=1 !yearly=res_kw_2844_pu

New Load.load_p1ulv6472_2 conn=wye bus1=p1ulv6471.2 kV=0.12 Vminpu=0.8 Vmaxpu=1.2 model=1 kW=1.5539156587657554 kvar=0.6092612784831468 Phases=1 !yearly=res_kw_2844_pu

New Load.load_p1ulv6473_1 conn=wye bus1=p1ulv6473.1 kV=0.12 Vminpu=0.8 Vmaxpu=1.2 model=1 kW=3.025577912376512 kvar=0.6479907691217454 Phases=1 !yearly=com_kw_35494_pu

New Load.load_p1ulv6473_2 conn=wye bus1=p1ulv6473.2 kV=0.12 Vminpu=0.8 Vmaxpu=1.2 model=1 kW=3.025577912376512 kvar=0.6479907691217454 Phases=1 !yearly=com_kw_35494_pu

New Load.load_p1ulv6474_1 conn=wye bus1=p1ulv6474.1 kV=0.12 Vminpu=0.8 Vmaxpu=1.2 model=1 kW=3.025577912376512 kvar=0.6479907691217454 Phases=1 !yearly=com_kw_35494_pu

New Load.load_p1ulv6474_2 conn=wye bus1=p1ulv6474.2 kV=0.12 Vminpu=0.8 Vmaxpu=1.2 model=1 kW=3.025577912376512 kvar=0.6479907691217454 Phases=1 !yearly=com_kw_35494_pu

New Load.load_p1ulv6475_1 conn=wye bus1=p1ulv6475.1 kV=0.12 Vminpu=0.8 Vmaxpu=1.2 model=1 kW=4.2946069003426 kvar=0.8474835414683014 Phases=1 !yearly=res_kw_9291_pu

New Load.load_p1ulv6475_2 conn=wye bus1=p1ulv6475.2 kV=0.12 Vminpu=0.8 Vmaxpu=1.2 model=1 kW=4.2946069003426 kvar=0.8474835414683014 Phases=1 !yearly=res_kw_9291_pu

New Load.load_p1ulv6476_1 conn=wye bus1=p1ulv6476.1 kV=0.12 Vminpu=0.8 Vmaxpu=1.2 model=1 kW=3.836719599663217 kvar=0.6495916454354025 Phases=1 !yearly=res_kw_3361_pu

New Load.load_p1ulv6476_2 conn=wye bus1=p1ulv6476.2 kV=0.12 Vminpu=0.8 Vmaxpu=1.2 model=1 kW=3.836719599663217 kvar=0.6495916454354025 Phases=1 !yearly=res_kw_3361_pu

New Load.load_p1ulv6477_1 conn=wye bus1=p1ulv6477.1 kV=0.12 Vminpu=0.8 Vmaxpu=1.2 model=1 kW=3.0499470002456577 kvar=1.1153778753471038 Phases=1 !yearly=res_kw_10110_pu

New Load.load_p1ulv6477_2 conn=wye bus1=p1ulv6477.2 kV=0.12 Vminpu=0.8 Vmaxpu=1.2 model=1 kW=3.0499470002456577 kvar=1.1153778753471038 Phases=1 !yearly=res_kw_10110_pu

New Load.load_p1ulv6478_1 conn=wye bus1=p1ulv6476.1 kV=0.12 Vminpu=0.8 Vmaxpu=1.2 model=1 kW=1.5539156587657554 kvar=0.6092612784831468 Phases=1 !yearly=res_kw_2844_pu

New Load.load_p1ulv6478_2 conn=wye bus1=p1ulv6476.2 kV=0.12 Vminpu=0.8 Vmaxpu=1.2 model=1 kW=1.5539156587657554 kvar=0.6092612784831468 Phases=1 !yearly=res_kw_2844_pu

New Load.load_p1ulv6479_1 conn=wye bus1=p1ulv6479.1 kV=0.12 Vminpu=0.8 Vmaxpu=1.2 model=1 kW=2.213324141203781 kvar=0.6323633789033913 Phases=1 !yearly=res_kw_6994_pu

New Load.load_p1ulv6479_2 conn=wye bus1=p1ulv6479.2 kV=0.12 Vminpu=0.8 Vmaxpu=1.2 model=1 kW=2.213324141203781 kvar=0.6323633789033913 Phases=1 !yearly=res_kw_6994_pu

New Load.load_p1ulv6480_1 conn=wye bus1=p1ulv6480.1 kV=0.12 Vminpu=0.8 Vmaxpu=1.2 model=1 kW=1.9913603837135423 kvar=0.6878897359041518 Phases=1 !yearly=res_kw_6081_pu

New Load.load_p1ulv6480_2 conn=wye bus1=p1ulv6480.2 kV=0.12 Vminpu=0.8 Vmaxpu=1.2 model=1 kW=1.9913603837135423 kvar=0.6878897359041518 Phases=1 !yearly=res_kw_6081_pu

New Load.load_p1ulv6481_1 conn=wye bus1=p1ulv6481.1 kV=0.12 Vminpu=0.8 Vmaxpu=1.2 model=1 kW=1.0838535653118397 kvar=0.3890052550428847 Phases=1 !yearly=res_kw_8600_pu

New Load.load_p1ulv6481_2 conn=wye bus1=p1ulv6481.2 kV=0.12 Vminpu=0.8 Vmaxpu=1.2 model=1 kW=1.0838535653118397 kvar=0.3890052550428847 Phases=1 !yearly=res_kw_8600_pu

New Load.load_p1ulv6482_1 conn=wye bus1=p1ulv6482.1 kV=0.12 Vminpu=0.8 Vmaxpu=1.2 model=1 kW=2.0873737879256953 kvar=0.4232635240746854 Phases=1 !yearly=com_kw_41678_pu

New Load.load_p1ulv6482_2 conn=wye bus1=p1ulv6482.2 kV=0.12 Vminpu=0.8 Vmaxpu=1.2 model=1 kW=2.0873737879256953 kvar=0.4232635240746854 Phases=1 !yearly=com_kw_41678_pu

New Load.load_p1ulv6483_1 conn=wye bus1=p1ulv6483.1 kV=0.12 Vminpu=0.8 Vmaxpu=1.2 model=1 kW=3.025577912376512 kvar=0.6479907691217454 Phases=1 !yearly=com_kw_35494_pu

New Load.load_p1ulv6483_2 conn=wye bus1=p1ulv6483.2 kV=0.12 Vminpu=0.8 Vmaxpu=1.2 model=1 kW=3.025577912376512 kvar=0.6479907691217454 Phases=1 !yearly=com_kw_35494_pu

New Load.load_p1ulv6484_1 conn=wye bus1=p1ulv6484.1 kV=0.12 Vminpu=0.8 Vmaxpu=1.2 model=1 kW=11.187680818828206 kvar=2.069747675161727 Phases=1 !yearly=res_kw_6008_pu

New Load.load_p1ulv6484_2 conn=wye bus1=p1ulv6484.2 kV=0.12 Vminpu=0.8 Vmaxpu=1.2 model=1 kW=11.187680818828206 kvar=2.069747675161727 Phases=1 !yearly=res_kw_6008_pu

New Load.load_p1ulv6485_1 conn=wye bus1=p1ulv6487.1 kV=0.12 Vminpu=0.8 Vmaxpu=1.2 model=1 kW=9.232665871422492 kvar=2.0213593210170435 Phases=1 !yearly=res_kw_14355_pu

New Load.load_p1ulv6485_2 conn=wye bus1=p1ulv6487.2 kV=0.12 Vminpu=0.8 Vmaxpu=1.2 model=1 kW=9.232665871422492 kvar=2.0213593210170435 Phases=1 !yearly=res_kw_14355_pu

New Load.load_p1ulv6486_1 conn=wye bus1=p1ulv6487.1 kV=0.12 Vminpu=0.8 Vmaxpu=1.2 model=1 kW=2.213324141203781 kvar=0.6323633789033913 Phases=1 !yearly=res_kw_6994_pu

New Load.load_p1ulv6486_2 conn=wye bus1=p1ulv6487.2 kV=0.12 Vminpu=0.8 Vmaxpu=1.2 model=1 kW=2.213324141203781 kvar=0.6323633789033913 Phases=1 !yearly=res_kw_6994_pu

New Load.load_p1ulv6487_1 conn=wye bus1=p1ulv6487.1 kV=0.12 Vminpu=0.8 Vmaxpu=1.2 model=1 kW=1.5539156587657554 kvar=0.6092612784831468 Phases=1 !yearly=res_kw_2844_pu

New Load.load_p1ulv6487_2 conn=wye bus1=p1ulv6487.2 kV=0.12 Vminpu=0.8 Vmaxpu=1.2 model=1 kW=1.5539156587657554 kvar=0.6092612784831468 Phases=1 !yearly=res_kw_2844_pu

New Load.load_p1ulv6488_1 conn=wye bus1=p1ulv6488.1 kV=0.12 Vminpu=0.8 Vmaxpu=1.2 model=1 kW=3.025577912376512 kvar=0.6479907691217454 Phases=1 !yearly=com_kw_35494_pu

New Load.load_p1ulv6488_2 conn=wye bus1=p1ulv6488.2 kV=0.12 Vminpu=0.8 Vmaxpu=1.2 model=1 kW=3.025577912376512 kvar=0.6479907691217454 Phases=1 !yearly=com_kw_35494_pu

New Load.load_p1ulv6489_1 conn=wye bus1=p1ulv6489.1 kV=0.12 Vminpu=0.8 Vmaxpu=1.2 model=1 kW=4.232057012168481 kvar=0.2513317849586886 Phases=1 !yearly=com_kw_1949_pu

New Load.load_p1ulv6489_2 conn=wye bus1=p1ulv6489.2 kV=0.12 Vminpu=0.8 Vmaxpu=1.2 model=1 kW=4.232057012168481 kvar=0.2513317849586886 Phases=1 !yearly=com_kw_1949_pu

New Load.load_p1ulv6490_1 conn=wye bus1=p1ulv6490.1 kV=0.12 Vminpu=0.8 Vmaxpu=1.2 model=1 kW=4.838525071303998 kvar=0.6392471611694661 Phases=1 !yearly=res_kw_2042_pu

New Load.load_p1ulv6490_2 conn=wye bus1=p1ulv6490.2 kV=0.12 Vminpu=0.8 Vmaxpu=1.2 model=1 kW=4.838525071303998 kvar=0.6392471611694661 Phases=1 !yearly=res_kw_2042_pu

New Load.load_p1ulv6491_1 conn=wye bus1=p1ulv6491.1 kV=0.12 Vminpu=0.8 Vmaxpu=1.2 model=1 kW=3.025577912376512 kvar=0.6479907691217454 Phases=1 !yearly=com_kw_35494_pu

New Load.load_p1ulv6491_2 conn=wye bus1=p1ulv6491.2 kV=0.12 Vminpu=0.8 Vmaxpu=1.2 model=1 kW=3.025577912376512 kvar=0.6479907691217454 Phases=1 !yearly=com_kw_35494_pu

New Load.load_p1ulv6492_1 conn=wye bus1=p1ulv6492.1 kV=0.12 Vminpu=0.8 Vmaxpu=1.2 model=1 kW=17.84583521226247 kvar=2.301057202277044 Phases=1 !yearly=res_kw_8382_pu

New Load.load_p1ulv6492_2 conn=wye bus1=p1ulv6492.2 kV=0.12 Vminpu=0.8 Vmaxpu=1.2 model=1 kW=17.84583521226247 kvar=2.301057202277044 Phases=1 !yearly=res_kw_8382_pu

New Load.load_p1ulv6493_1 conn=wye bus1=p1ulv6490.1 kV=0.12 Vminpu=0.8 Vmaxpu=1.2 model=1 kW=4.232057012168481 kvar=0.2513317849586886 Phases=1 !yearly=com_kw_1949_pu

New Load.load_p1ulv6493_2 conn=wye bus1=p1ulv6490.2 kV=0.12 Vminpu=0.8 Vmaxpu=1.2 model=1 kW=4.232057012168481 kvar=0.2513317849586886 Phases=1 !yearly=com_kw_1949_pu

New Load.load_p1ulv6494_1 conn=wye bus1=p1ulv6494.1 kV=0.12 Vminpu=0.8 Vmaxpu=1.2 model=1 kW=2.7405726618177377 kvar=0.26510780348327356 Phases=1 !yearly=res_kw_13715_pu

New Load.load_p1ulv6494_2 conn=wye bus1=p1ulv6494.2 kV=0.12 Vminpu=0.8 Vmaxpu=1.2 model=1 kW=2.7405726618177377 kvar=0.26510780348327356 Phases=1 !yearly=res_kw_13715_pu

New Load.load_p1ulv6495_1 conn=wye bus1=p1ulv6494.1 kV=0.12 Vminpu=0.8 Vmaxpu=1.2 model=1 kW=4.151597570794654 kvar=0.9532625781753219 Phases=1 !yearly=res_kw_8134_pu

New Load.load_p1ulv6495_2 conn=wye bus1=p1ulv6494.2 kV=0.12 Vminpu=0.8 Vmaxpu=1.2 model=1 kW=4.151597570794654 kvar=0.9532625781753219 Phases=1 !yearly=res_kw_8134_pu

New Load.load_p1ulv6496_1 conn=wye bus1=p1ulv6496.1 kV=0.12 Vminpu=0.8 Vmaxpu=1.2 model=1 kW=5.810132764673673 kvar=0.37076490271254653 Phases=1 !yearly=res_kw_10343_pu
