New Line.l(r:p1udt473lv-p1ulv1973) Units=km Length=0.0105851 bus1=p1udt473lv.1.2 bus2=p1ulv1973.1.2 switch=n enabled=y phases=2 Linecode=1P_UG_AL_1/0_Brenau_2

New Line.l(r:p1udt473lv-p1ulv2400) Units=km Length=0.010934700000000002 bus1=p1udt473lv.1.2 bus2=p1ulv2400.1.2 switch=n enabled=y phases=2 Linecode=1P_UG_AL_1/0_Brenau_2

New Line.l(r:p1udm1695-p1ulv1972) Units=km Length=0.0107269 bus1=p1udm1695.1.2 bus2=p1ulv1972.1.2 switch=n enabled=y phases=2 Linecode=1P_UG_AL_1/0_Brenau_2

New Line.l(r:p1udm1695-p1ulv2401) Units=km Length=0.00930223 bus1=p1udm1695.1.2 bus2=p1ulv2401.1.2 switch=n enabled=y phases=2 Linecode=1P_UG_AL_1/0_Brenau_2

New Line.l(r:p1udm1694-p1ulv1971) Units=km Length=0.0110473 bus1=p1udm1694.1.2 bus2=p1ulv1971.1.2 switch=n enabled=y phases=2 Linecode=1P_UG_AL_1/0_Brenau_2

New Line.l(r:p1udm1694-p1ulv2402) Units=km Length=0.00966778 bus1=p1udm1694.1.2 bus2=p1ulv2402.1.2 switch=n enabled=y phases=2 Linecode=1P_UG_AL_1/0_Brenau_2

New Line.l(r:p1udm1703-p1ulv2410) Units=km Length=0.00943187 bus1=p1udm1703.1.2 bus2=p1ulv2410.1.2 switch=n enabled=y phases=2 Linecode=1P_UG_AL_1/0_Brenau_2

New Line.l(r:p1udm1703-p1ulv8754) Units=km Length=0.0115856 bus1=p1udm1703.1.2 bus2=p1ulv8754.1.2 switch=n enabled=y phases=2 Linecode=1P_UG_AL_1/0_Brenau_2

New Line.l(r:p1udm1694-p1udm1703) Units=km Length=0.028518 bus1=p1udm1694.1.2 bus2=p1udm1703.1.2 switch=n enabled=y phases=2 Linecode=1P_UG_AL_1/0_Brenau_2

New Line.l(r:p1udm1694-p1udm1695) Units=km Length=0.00933126 bus1=p1udm1695.1.2 bus2=p1udm1694.1.2 switch=n enabled=y phases=2 Linecode=1P_UG_AL_1/0_Brenau_2

New Line.l(r:p1udm1695-p1udt473lv) Units=km Length=0.00932303 bus1=p1udt473lv.1.2 bus2=p1udm1695.1.2 switch=n enabled=y phases=2 Linecode=1P_UG_AL_4/0_Sweetbriar_2

New Line.l(r:p1udm1697-p1ulv2399) Units=km Length=0.0119923 bus1=p1udm1697.1.2 bus2=p1ulv2399.1.2 switch=n enabled=y phases=2 Linecode=1P_UG_AL_1/0_Brenau_2

New Line.l(r:p1udm1707-p1ulv8760) Units=km Length=0.00992194 bus1=p1udm1707.1.2 bus2=p1ulv8760.1.2 switch=n enabled=y phases=2 Linecode=1P_UG_AL_1/0_Brenau_2

New Line.l(r:p1udm1706-p1ulv8758) Units=km Length=0.00804411 bus1=p1udm1706.1.2 bus2=p1ulv8758.1.2 switch=n enabled=y phases=2 Linecode=1P_UG_AL_1/0_Brenau_2

New Line.l(r:p1udm1705-p1ulv8757) Units=km Length=0.00933672 bus1=p1udm1705.1.2 bus2=p1ulv8757.1.2 switch=n enabled=y phases=2 Linecode=1P_UG_AL_1/0_Brenau_2

New Line.l(r:p1udm1701-p1ulv2403) Units=km Length=0.00880647 bus1=p1udm1701.1.2 bus2=p1ulv2403.1.2 switch=n enabled=y phases=2 Linecode=1P_UG_AL_1/0_Brenau_2

New Line.l(r:p1udm1702-p1ulv2404) Units=km Length=0.00930791 bus1=p1udm1702.1.2 bus2=p1ulv2404.1.2 switch=n enabled=y phases=2 Linecode=1P_UG_AL_1/0_Brenau_2

New Line.l(r:p1udm1701-p1udm1702) Units=km Length=0.0095254 bus1=p1udm1701.1.2 bus2=p1udm1702.1.2 switch=n enabled=y phases=2 Linecode=1P_UG_AL_1/0_Brenau_2

New Line.l(r:p1udm1701-p1udm1705) Units=km Length=0.0095254 bus1=p1udm1705.1.2 bus2=p1udm1701.1.2 switch=n enabled=y phases=2 Linecode=1P_UG_AL_1/0_Brenau_2

New Line.l(r:p1udm1705-p1udm1706) Units=km Length=0.00953415 bus1=p1udm1706.1.2 bus2=p1udm1705.1.2 switch=n enabled=y phases=2 Linecode=1P_UG_AL_1/0_Brenau_2

New Line.l(r:p1udm1706-p1udm1707) Units=km Length=0.0190557 bus1=p1udm1707.1.2 bus2=p1udm1706.1.2 switch=n enabled=y phases=2 Linecode=1P_UG_AL_1/0_Brenau_2

New Line.l(r:p1udm1697-p1udm1707) Units=km Length=0.0281797 bus1=p1udm1697.1.2 bus2=p1udm1707.1.2 switch=n enabled=y phases=2 Linecode=1P_UG_AL_1/0_Brenau_2

New Line.l(r:p1udm1697-p1udt473lv) Units=km Length=0.00933126 bus1=p1udt473lv.1.2 bus2=p1udm1697.1.2 switch=n enabled=y phases=2 Linecode=1P_UG_AL_1/0_Brenau_2

New Line.l(r:p1udt474lv-p1ulv2406) Units=km Length=0.0129189 bus1=p1udt474lv.1.2 bus2=p1ulv2406.1.2 switch=n enabled=y phases=2 Linecode=1P_UG_AL_1/0_Brenau_2

New Line.l(r:p1udm1710-p1ulv1977) Units=km Length=0.0112161 bus1=p1udm1710.1.2 bus2=p1ulv1977.1.2 switch=n enabled=y phases=2 Linecode=1P_UG_AL_1/0_Brenau_2

New Line.l(r:p1udm1710-p1ulv2405) Units=km Length=0.0129817 bus1=p1udm1710.1.2 bus2=p1ulv2405.1.2 switch=n enabled=y phases=2 Linecode=1P_UG_AL_1/0_Brenau_2

New Line.l(r:p1udm1709-p1ulv1976) Units=km Length=0.0107652 bus1=p1udm1709.1.2 bus2=p1ulv1976.1.2 switch=n enabled=y phases=2 Linecode=1P_UG_AL_1/0_Brenau_2

New Line.l(r:p1udm1708-p1ulv1975) Units=km Length=0.010607 bus1=p1udm1708.1.2 bus2=p1ulv1975.1.2 switch=n enabled=y phases=2 Linecode=1P_UG_AL_1/0_Brenau_2

New Line.l(r:p1udm1717-p1ulv8762) Units=km Length=0.0098651 bus1=p1udm1717.1.2 bus2=p1ulv8762.1.2 switch=n enabled=y phases=2 Linecode=1P_UG_AL_1/0_Brenau_2

New Line.l(r:p1udm1708-p1udm1717) Units=km Length=0.013542 bus1=p1udm1708.1.2 bus2=p1udm1717.1.2 switch=n enabled=y phases=2 Linecode=1P_UG_AL_1/0_Brenau_2

New Line.l(r:p1udm1708-p1udm1709) Units=km Length=0.006766930000000001 bus1=p1udm1709.1.2 bus2=p1udm1708.1.2 switch=n enabled=y phases=2 Linecode=1P_UG_AL_1/0_Brenau_2

New Line.l(r:p1udm1709-p1udm1710) Units=km Length=0.00937405 bus1=p1udm1710.1.2 bus2=p1udm1709.1.2 switch=n enabled=y phases=2 Linecode=1P_UG_AL_1/0_Brenau_2

New Line.l(r:p1udm1710-p1udt474lv) Units=km Length=0.00936001 bus1=p1udt474lv.1.2 bus2=p1udm1710.1.2 switch=n enabled=y phases=2 Linecode=1P_UG_AL_2/0_Converse_2

New Line.l(r:p1udm1713-p1ulv2408) Units=km Length=0.0126015 bus1=p1udm1713.1.2 bus2=p1ulv2408.1.2 switch=n enabled=y phases=2 Linecode=1P_UG_AL_1/0_Brenau_2

New Line.l(r:p1udm1714-p1ulv2409) Units=km Length=0.0125239 bus1=p1udm1714.1.2 bus2=p1ulv2409.1.2 switch=n enabled=y phases=2 Linecode=1P_UG_AL_1/0_Brenau_2

New Line.l(r:p1udm1715-p1ulv2411) Units=km Length=0.00939136 bus1=p1udm1715.1.2 bus2=p1ulv2411.1.2 switch=n enabled=y phases=2 Linecode=1P_UG_AL_1/0_Brenau_2

New Line.l(r:p1udm1715-p1ulv3617) Units=km Length=0.00894987 bus1=p1udm1715.1.2 bus2=p1ulv3617.1.2 switch=n enabled=y phases=2 Linecode=1P_UG_AL_1/0_Brenau_2

New Line.l(r:p1udm1714-p1udm1715) Units=km Length=0.0858356 bus1=p1udm1714.1.2 bus2=p1udm1715.1.2 switch=n enabled=y phases=2 Linecode=1P_UG_AL_1/0_Brenau_2

New Line.l(r:p1udm1713-p1udm1714) Units=km Length=0.009367890000000002 bus1=p1udm1713.1.2 bus2=p1udm1714.1.2 switch=n enabled=y phases=2 Linecode=1P_UG_AL_1/0_Brenau_2

New Line.l(r:p1udm1713-p1udt474lv) Units=km Length=0.00937405 bus1=p1udt474lv.1.2 bus2=p1udm1713.1.2 switch=n enabled=y phases=2 Linecode=1P_UG_AL_2/0_Converse_2

New Line.l(r:p1udt475lv-p1ulv1981) Units=km Length=0.00829132 bus1=p1udt475lv.1.2 bus2=p1ulv1981.1.2 switch=n enabled=y phases=2 Linecode=1P_UG_AL_1/0_Brenau_2

New Line.l(r:p1udm1720-p1ulv1980) Units=km Length=0.0091419 bus1=p1udm1720.1.2 bus2=p1ulv1980.1.2 switch=n enabled=y phases=2 Linecode=1P_UG_AL_1/0_Brenau_2

New Line.l(r:p1udm1719-p1ulv1979) Units=km Length=0.00673261 bus1=p1udm1719.1.2 bus2=p1ulv1979.1.2 switch=n enabled=y phases=2 Linecode=1P_UG_AL_1/0_Brenau_2

New Line.l(r:p1udm1723-p1ulv1983) Units=km Length=0.00805593 bus1=p1udm1723.1.2 bus2=p1ulv1983.1.2 switch=n enabled=y phases=2 Linecode=1P_UG_AL_1/0_Brenau_2

New Line.l(r:p1udm1719-p1udm1723) Units=km Length=0.00678565 bus1=p1udm1719.1.2 bus2=p1udm1723.1.2 switch=n enabled=y phases=2 Linecode=1P_UG_AL_1/0_Brenau_2

New Line.l(r:p1udm1719-p1udm1720) Units=km Length=0.00711351 bus1=p1udm1720.1.2 bus2=p1udm1719.1.2 switch=n enabled=y phases=2 Linecode=1P_UG_AL_1/0_Brenau_2

New Line.l(r:p1udm1720-p1udt475lv) Units=km Length=0.00710643 bus1=p1udt475lv.1.2 bus2=p1udm1720.1.2 switch=n enabled=y phases=2 Linecode=1P_UG_AL_1/0_Brenau_2

New Line.l(r:p1udm1722-p1ulv1982) Units=km Length=0.0115204 bus1=p1udm1722.1.2 bus2=p1ulv1982.1.2 switch=n enabled=y phases=2 Linecode=1P_UG_AL_1/0_Brenau_2

New Line.l(r:p1udm1718-p1ulv1978) Units=km Length=0.011154 bus1=p1udm1718.1.2 bus2=p1ulv1978.1.2 switch=n enabled=y phases=2 Linecode=1P_UG_AL_1/0_Brenau_2

New Line.l(r:p1udm1718-p1udm1722) Units=km Length=0.0143767 bus1=p1udm1722.1.2 bus2=p1udm1718.1.2 switch=n enabled=y phases=2 Linecode=1P_UG_AL_1/0_Brenau_2

New Line.l(r:p1udm1722-p1udt475lv) Units=km Length=0.00694262 bus1=p1udt475lv.1.2 bus2=p1udm1722.1.2 switch=n enabled=y phases=2 Linecode=1P_UG_AL_1/0_Brenau_2

New Line.l(r:p1udt476lv-p1ulv1988) Units=km Length=0.00727616 bus1=p1udt476lv.1.2 bus2=p1ulv1988.1.2 switch=n enabled=y phases=2 Linecode=1P_UG_AL_1/0_Brenau_2

New Line.l(r:p1udm1727-p1ulv1987) Units=km Length=0.00668253 bus1=p1udm1727.1.2 bus2=p1ulv1987.1.2 switch=n enabled=y phases=2 Linecode=1P_UG_AL_1/0_Brenau_2

New Line.l(r:p1udm1726-p1ulv1986) Units=km Length=0.007334810000000001 bus1=p1udm1726.1.2 bus2=p1ulv1986.1.2 switch=n enabled=y phases=2 Linecode=1P_UG_AL_1/0_Brenau_2

New Line.l(r:p1udm1724-p1ulv1984) Units=km Length=0.00786451 bus1=p1udm1724.1.2 bus2=p1ulv1984.1.2 switch=n enabled=y phases=2 Linecode=1P_UG_AL_1/0_Brenau_2

New Line.l(r:p1udm1724-p1ulv1985) Units=km Length=0.00902982 bus1=p1udm1724.1.2 bus2=p1ulv1985.1.2 switch=n enabled=y phases=2 Linecode=1P_UG_AL_1/0_Brenau_2

New Line.l(r:p1udm1724-p1udm1726) Units=km Length=0.00966803 bus1=p1udm1726.1.2 bus2=p1udm1724.1.2 switch=n enabled=y phases=2 Linecode=1P_UG_AL_1/0_Brenau_2

New Line.l(r:p1udm1726-p1udm1727) Units=km Length=0.00966803 bus1=p1udm1727.1.2 bus2=p1udm1726.1.2 switch=n enabled=y phases=2 Linecode=1P_UG_AL_1/0_Brenau_2

New Line.l(r:p1udm1727-p1udt476lv) Units=km Length=0.009676020000000002 bus1=p1udt476lv.1.2 bus2=p1udm1727.1.2 switch=n enabled=y phases=2 Linecode=1P_UG_AL_1/0_Brenau_2

New Line.l(r:p1udm1730-p1ulv1990) Units=km Length=0.00753353 bus1=p1udm1730.1.2 bus2=p1ulv1990.1.2 switch=n enabled=y phases=2 Linecode=1P_UG_AL_1/0_Brenau_2

New Line.l(r:p1udm1729-p1ulv1989) Units=km Length=0.00727652 bus1=p1udm1729.1.2 bus2=p1ulv1989.1.2 switch=n enabled=y phases=2 Linecode=1P_UG_AL_1/0_Brenau_2

New Line.l(r:p1udm1729-p1ulv2005) Units=km Length=0.0101689 bus1=p1udm1729.1.2 bus2=p1ulv2005.1.2 switch=n enabled=y phases=2 Linecode=1P_UG_AL_1/0_Brenau_2

New Line.l(r:p1udm1731-p1ulv2003) Units=km Length=0.00682246 bus1=p1udm1731.1.2 bus2=p1ulv2003.1.2 switch=n enabled=y phases=2 Linecode=1P_UG_AL_1/0_Brenau_2

New Line.l(r:p1udm1732-p1ulv2004) Units=km Length=0.00858841 bus1=p1udm1732.1.2 bus2=p1ulv2004.1.2 switch=n enabled=y phases=2 Linecode=1P_UG_AL_1/0_Brenau_2

New Line.l(r:p1udm1731-p1udm1732) Units=km Length=0.00966803 bus1=p1udm1731.1.2 bus2=p1udm1732.1.2 switch=n enabled=y phases=2 Linecode=1P_UG_AL_1/0_Brenau_2

New Line.l(r:p1udm1729-p1udm1731) Units=km Length=0.019344 bus1=p1udm1729.1.2 bus2=p1udm1731.1.2 switch=n enabled=y phases=2 Linecode=1P_UG_AL_1/0_Brenau_2

New Line.l(r:p1udm1729-p1udm1730) Units=km Length=0.00966803 bus1=p1udm1730.1.2 bus2=p1udm1729.1.2 switch=n enabled=y phases=2 Linecode=1P_UG_AL_1/0_Brenau_2

New Line.l(r:p1udm1730-p1udt476lv) Units=km Length=0.00966803 bus1=p1udt476lv.1.2 bus2=p1udm1730.1.2 switch=n enabled=y phases=2 Linecode=1P_UG_AL_1/0_Brenau_2

New Line.l(r:p1udt477lv-p1ulv1992) Units=km Length=0.0132007 bus1=p1udt477lv.1.2 bus2=p1ulv1992.1.2 switch=n enabled=y phases=2 Linecode=1P_UG_AL_1/0_Brenau_2

New Line.l(r:p1udm1734-p1ulv1991) Units=km Length=0.0130644 bus1=p1udm1734.1.2 bus2=p1ulv1991.1.2 switch=n enabled=y phases=2 Linecode=1P_UG_AL_1/0_Brenau_2

New Line.l(r:p1udm1739-p1ulv1996) Units=km Length=0.013201800000000001 bus1=p1udm1739.1.2 bus2=p1ulv1996.1.2 switch=n enabled=y phases=2 Linecode=1P_UG_AL_1/0_Brenau_2

New Line.l(r:p1udm1740-p1ulv8768) Units=km Length=0.00980356 bus1=p1udm1740.1.2 bus2=p1ulv8768.1.2 switch=n enabled=y phases=2 Linecode=1P_UG_AL_1/0_Brenau_2

New Line.l(r:p1udm1739-p1udm1740) Units=km Length=0.0361393 bus1=p1udm1739.1.2 bus2=p1udm1740.1.2 switch=n enabled=y phases=2 Linecode=1P_UG_AL_1/0_Brenau_2

New Line.l(r:p1udm1734-p1udm1739) Units=km Length=0.00903713 bus1=p1udm1734.1.2 bus2=p1udm1739.1.2 switch=n enabled=y phases=2 Linecode=1P_UG_AL_1/0_Brenau_2

New Line.l(r:p1udm1734-p1udt477lv) Units=km Length=0.00903135 bus1=p1udt477lv.1.2 bus2=p1udm1734.1.2 switch=n enabled=y phases=2 Linecode=1P_UG_AL_1/0_Brenau_2

New Line.l(r:p1udm1736-p1ulv1993) Units=km Length=0.0132642 bus1=p1udm1736.1.2 bus2=p1ulv1993.1.2 switch=n enabled=y phases=2 Linecode=1P_UG_AL_1/0_Brenau_2

New Line.l(r:p1udm1737-p1ulv1994) Units=km Length=0.013279000000000001 bus1=p1udm1737.1.2 bus2=p1ulv1994.1.2 switch=n enabled=y phases=2 Linecode=1P_UG_AL_1/0_Brenau_2

New Line.l(r:p1udm1738-p1ulv1995) Units=km Length=0.0135913 bus1=p1udm1738.1.2 bus2=p1ulv1995.1.2 switch=n enabled=y phases=2 Linecode=1P_UG_AL_1/0_Brenau_2

New Line.l(r:p1udm1737-p1udm1738) Units=km Length=0.00903135 bus1=p1udm1737.1.2 bus2=p1udm1738.1.2 switch=n enabled=y phases=2 Linecode=1P_UG_AL_1/0_Brenau_2

New Line.l(r:p1udm1736-p1udm1737) Units=km Length=0.00903135 bus1=p1udm1736.1.2 bus2=p1udm1737.1.2 switch=n enabled=y phases=2 Linecode=1P_UG_AL_1/0_Brenau_2

New Line.l(r:p1udm1736-p1udt477lv) Units=km Length=0.00903951 bus1=p1udt477lv.1.2 bus2=p1udm1736.1.2 switch=n enabled=y phases=2 Linecode=1P_UG_AL_1/0_Brenau_2

New Line.l(r:p1udt478lv-p1ulv8772) Units=km Length=0.0143472 bus1=p1udt478lv.1.2 bus2=p1ulv8772.1.2 switch=n enabled=y phases=2 Linecode=1P_UG_AL_1/0_Brenau_2

New Line.l(r:p1udm1741-p1ulv1998) Units=km Length=0.013597 bus1=p1udm1741.1.2 bus2=p1ulv1998.1.2 switch=n enabled=y phases=2 Linecode=1P_UG_AL_1/0_Brenau_2

New Line.l(r:p1udm1741-p1ulv8774) Units=km Length=0.00840209 bus1=p1udm1741.1.2 bus2=p1ulv8774.1.2 switch=n enabled=y phases=2 Linecode=1P_UG_AL_1/0_Brenau_2

New Line.l(r:p1udm1742-p1ulv1999) Units=km Length=0.0128637 bus1=p1udm1742.1.2 bus2=p1ulv1999.1.2 switch=n enabled=y phases=2 Linecode=1P_UG_AL_1/0_Brenau_2

New Line.l(r:p1udm1743-p1ulv2000) Units=km Length=0.0152685 bus1=p1udm1743.1.2 bus2=p1ulv2000.1.2 switch=n enabled=y phases=2 Linecode=1P_UG_AL_1/0_Brenau_2

New Line.l(r:p1udm1742-p1udm1743) Units=km Length=0.00939754 bus1=p1udm1742.1.2 bus2=p1udm1743.1.2 switch=n enabled=y phases=2 Linecode=1P_UG_AL_1/0_Brenau_2

New Line.l(r:p1udm1741-p1udm1742) Units=km Length=0.00939994 bus1=p1udm1741.1.2 bus2=p1udm1742.1.2 switch=n enabled=y phases=2 Linecode=1P_UG_AL_1/0_Brenau_2

New Line.l(r:p1udm1741-p1udt478lv) Units=km Length=0.00939177 bus1=p1udt478lv.1.2 bus2=p1udm1741.1.2 switch=n enabled=y phases=2 Linecode=1P_UG_AL_1/0_Brenau_2

New Line.l(r:p1udm1744-p1ulv2001) Units=km Length=0.0153459 bus1=p1udm1744.1.2 bus2=p1ulv2001.1.2 switch=n enabled=y phases=2 Linecode=1P_UG_AL_1/0_Brenau_2

New Line.l(r:p1udm1744-p1ulv2009) Units=km Length=0.008577 bus1=p1udm1744.1.2 bus2=p1ulv2009.1.2 switch=n enabled=y phases=2 Linecode=1P_UG_AL_1/0_Brenau_2

New Line.l(r:p1udm1745-p1ulv2002) Units=km Length=0.015203 bus1=p1udm1745.1.2 bus2=p1ulv2002.1.2 switch=n enabled=y phases=2 Linecode=1P_UG_AL_1/0_Brenau_2

New Line.l(r:p1udm1745-p1ulv2010) Units=km Length=0.00803484 bus1=p1udm1745.1.2 bus2=p1ulv2010.1.2 switch=n enabled=y phases=2 Linecode=1P_UG_AL_1/0_Brenau_2

New Line.l(r:p1udm1748-p1ulv2011) Units=km Length=0.0108301 bus1=p1udm1748.1.2 bus2=p1ulv2011.1.2 switch=n enabled=y phases=2 Linecode=1P_UG_AL_1/0_Brenau_2

New Line.l(r:p1udm1749-p1ulv2013) Units=km Length=0.0109005 bus1=p1udm1749.1.2 bus2=p1ulv2013.1.2 switch=n enabled=y phases=2 Linecode=1P_UG_AL_1/0_Brenau_2

New Line.l(r:p1udm1748-p1udm1749) Units=km Length=0.00939754 bus1=p1udm1748.1.2 bus2=p1udm1749.1.2 switch=n enabled=y phases=2 Linecode=1P_UG_AL_1/0_Brenau_2

New Line.l(r:p1udm1745-p1udm1748) Units=km Length=0.00939994 bus1=p1udm1745.1.2 bus2=p1udm1748.1.2 switch=n enabled=y phases=2 Linecode=1P_UG_AL_1/0_Brenau_2

New Line.l(r:p1udm1744-p1udm1745) Units=km Length=0.00939177 bus1=p1udm1744.1.2 bus2=p1udm1745.1.2 switch=n enabled=y phases=2 Linecode=1P_UG_AL_4/0_Sweetbriar_2

New Line.l(r:p1udm1744-p1udt478lv) Units=km Length=0.00939754 bus1=p1udt478lv.1.2 bus2=p1udm1744.1.2 switch=n enabled=y phases=2 Linecode=1P_UG_AL_4/0_Sweetbriar_2

New Line.l(r:p1udt479lv-p1ulv2007) Units=km Length=0.010440700000000002 bus1=p1udt479lv.1.2 bus2=p1ulv2007.1.2 switch=n enabled=y phases=2 Linecode=1P_UG_AL_1/0_Brenau_2

New Line.l(r:p1udm1754-p1ulv2008) Units=km Length=0.0101694 bus1=p1udm1754.1.2 bus2=p1ulv2008.1.2 switch=n enabled=y phases=2 Linecode=1P_UG_AL_1/0_Brenau_2

New Line.l(r:p1udm1761-p1ulv2021) Units=km Length=0.006981760000000001 bus1=p1udm1761.1.2 bus2=p1ulv2021.1.2 switch=n enabled=y phases=2 Linecode=1P_OH_AL_2/0_Rucina_2

New Line.l(r:p1udm1755-p1ulv2014) Units=km Length=0.00990584 bus1=p1udm1755.1.2 bus2=p1ulv2014.1.2 switch=n enabled=y phases=2 Linecode=1P_UG_AL_1/0_Brenau_2

New Line.l(r:p1udm1756-p1ulv2015) Units=km Length=0.0115337 bus1=p1udm1756.1.2 bus2=p1ulv2015.1.2 switch=n enabled=y phases=2 Linecode=1P_UG_AL_1/0_Brenau_2

New Line.l(r:p1udm1757-p1ulv2016) Units=km Length=0.0105843 bus1=p1udm1757.1.2 bus2=p1ulv2016.1.2 switch=n enabled=y phases=2 Linecode=1P_UG_AL_1/0_Brenau_2

New Line.l(r:p1udm1758-p1ulv2017) Units=km Length=0.0103036 bus1=p1udm1758.1.2 bus2=p1ulv2017.1.2 switch=n enabled=y phases=2 Linecode=1P_UG_AL_1/0_Brenau_2

New Line.l(r:p1udm1768-p1ulv8784) Units=km Length=0.00702454 bus1=p1udm1768.1.2 bus2=p1ulv8784.1.2 switch=n enabled=y phases=2 Linecode=1P_OH_AL_2/0_Rucina_2

New Line.l(r:p1udm1758-p1udm1768) Units=km Length=0.00848734 bus1=p1udm1758.1.2 bus2=p1udm1768.1.2 switch=n enabled=y phases=2 Linecode=1P_OH_AL_2/0_Rucina_2

New Line.l(r:p1udm1757-p1udm1758) Units=km Length=0.00849311 bus1=p1udm1757.1.2 bus2=p1udm1758.1.2 switch=n enabled=y phases=2 Linecode=1P_UG_AL_1/0_Brenau_2

New Line.l(r:p1udm1756-p1udm1757) Units=km Length=0.00848734 bus1=p1udm1756.1.2 bus2=p1udm1757.1.2 switch=n enabled=y phases=2 Linecode=1P_UG_AL_1/0_Brenau_2

New Line.l(r:p1udm1755-p1udm1756) Units=km Length=0.00848496 bus1=p1udm1755.1.2 bus2=p1udm1756.1.2 switch=n enabled=y phases=2 Linecode=1P_UG_AL_1/0_Brenau_2

New Line.l(r:p1udm1755-p1udm1761) Units=km Length=0.00550074 bus1=p1udm1761.1.2 bus2=p1udm1755.1.2 switch=n enabled=y phases=2 Linecode=1P_OH_AL_2/0_Rucina_2

New Line.l(r:p1udm1762-p1ulv2022) Units=km Length=0.009349270000000002 bus1=p1udm1762.1.2 bus2=p1ulv2022.1.2 switch=n enabled=y phases=2 Linecode=1P_OH_AL_2/0_Rucina_2

New Line.l(r:p1udm1763-p1ulv2023) Units=km Length=0.0103817 bus1=p1udm1763.1.2 bus2=p1ulv2023.1.2 switch=n enabled=y phases=2 Linecode=1P_OH_AL_2/0_Rucina_2

New Line.l(r:p1udm1769-p1ulv8785) Units=km Length=0.00801611 bus1=p1udm1769.1.2 bus2=p1ulv8785.1.2 switch=n enabled=y phases=2 Linecode=1P_OH_AL_2/0_Rucina_2

New Line.l(r:p1udm1763-p1udm1769) Units=km Length=0.0199908 bus1=p1udm1763.1.2 bus2=p1udm1769.1.2 switch=n enabled=y phases=2 Linecode=1P_OH_AL_2/0_Rucina_2

New Line.l(r:p1udm1762-p1udm1763) Units=km Length=0.0128524 bus1=p1udm1762.1.2 bus2=p1udm1763.1.2 switch=n enabled=y phases=2 Linecode=1P_OH_AL_2/0_Rucina_2

New Line.l(r:p1udm1761-p1udm1762) Units=km Length=0.006231810000000001 bus1=p1udm1761.1.2 bus2=p1udm1762.1.2 switch=n enabled=y phases=2 Linecode=1P_OH_AL_2/0_Rucina_2

New Line.l(r:p1udm1754-p1udm1761) Units=km Length=0.00686627 bus1=p1udm1754.1.2 bus2=p1udm1761.1.2 switch=n enabled=y phases=2 Linecode=1P_OH_AL_2/0_Rucina_2

New Line.l(r:p1udm1754-p1udt479lv) Units=km Length=0.00849311 bus1=p1udt479lv.1.2 bus2=p1udm1754.1.2 switch=n enabled=y phases=2 Linecode=1P_UG_AL_4/0_Sweetbriar_2

New Line.l(r:p1udm1760-p1ulv2020) Units=km Length=0.00700129 bus1=p1udm1760.1.2 bus2=p1ulv2020.1.2 switch=n enabled=y phases=2 Linecode=1P_UG_AL_1/0_Brenau_2

New Line.l(r:p1udm1759-p1ulv2019) Units=km Length=0.00929181 bus1=p1udm1759.1.2 bus2=p1ulv2019.1.2 switch=n enabled=y phases=2 Linecode=1P_UG_AL_1/0_Brenau_2

New Line.l(r:p1udm1767-p1ulv8779) Units=km Length=0.0070677100000000005 bus1=p1udm1767.1.2 bus2=p1ulv8779.1.2 switch=n enabled=y phases=2 Linecode=1P_UG_AL_1/0_Brenau_2

New Line.l(r:p1udm1766-p1ulv8778) Units=km Length=0.0062021 bus1=p1udm1766.1.2 bus2=p1ulv8778.1.2 switch=n enabled=y phases=2 Linecode=1P_UG_AL_1/0_Brenau_2

New Line.l(r:p1udm1765-p1ulv8776) Units=km Length=0.00687204 bus1=p1udm1765.1.2 bus2=p1ulv8776.1.2 switch=n enabled=y phases=2 Linecode=1P_UG_AL_1/0_Brenau_2

New Line.l(r:p1udm1764-p1ulv8775) Units=km Length=0.006608030000000001 bus1=p1udm1764.1.2 bus2=p1ulv8775.1.2 switch=n enabled=y phases=2 Linecode=1P_UG_AL_1/0_Brenau_2

New Line.l(r:p1udm1752-p1ulv2006) Units=km Length=0.00903427 bus1=p1udm1752.1.2 bus2=p1ulv2006.1.2 switch=n enabled=y phases=2 Linecode=1P_UG_AL_1/0_Brenau_2

New Line.l(r:p1udm1752-p1udm1764) Units=km Length=0.00544045 bus1=p1udm1764.1.2 bus2=p1udm1752.1.2 switch=n enabled=y phases=2 Linecode=1P_UG_AL_1/0_Brenau_2

New Line.l(r:p1udm1764-p1udm1765) Units=km Length=0.0113773 bus1=p1udm1765.1.2 bus2=p1udm1764.1.2 switch=n enabled=y phases=2 Linecode=1P_UG_AL_1/0_Brenau_2

New Line.l(r:p1udm1765-p1udm1766) Units=km Length=0.012593200000000002 bus1=p1udm1766.1.2 bus2=p1udm1765.1.2 switch=n enabled=y phases=2 Linecode=1P_UG_AL_1/0_Brenau_2

New Line.l(r:p1udm1766-p1udm1767) Units=km Length=0.0137473 bus1=p1udm1767.1.2 bus2=p1udm1766.1.2 switch=n enabled=y phases=2 Linecode=1P_UG_AL_1/0_Brenau_2

New Line.l(r:p1udm1759-p1udm1767) Units=km Length=0.013008100000000002 bus1=p1udm1759.1.2 bus2=p1udm1767.1.2 switch=n enabled=y phases=2 Linecode=1P_UG_AL_1/0_Brenau_2

New Line.l(r:p1udm1759-p1udm1760) Units=km Length=0.00592 bus1=p1udm1760.1.2 bus2=p1udm1759.1.2 switch=n enabled=y phases=2 Linecode=1P_UG_AL_2/0_Converse_2

New Line.l(r:p1udm1760-p1udt479lv) Units=km Length=0.01513 bus1=p1udt479lv.1.2 bus2=p1udm1760.1.2 switch=n enabled=y phases=2 Linecode=1P_UG_AL_4/0_Sweetbriar_2

New Line.l(r:p1udm1770-p1ulv2018) Units=km Length=0.00870228 bus1=p1udm1770.1.2 bus2=p1ulv2018.1.2 switch=n enabled=y phases=2 Linecode=1P_UG_AL_1/0_Brenau_2

New Line.l(r:p1udm1771-p1ulv8770) Units=km Length=0.0280039 bus1=p1udm1771.1.2 bus2=p1ulv8770.1.2 switch=n enabled=y phases=2 Linecode=1P_UG_AL_1/0_Brenau_2

New Line.l(r:p1udm1772-p1ulv8771) Units=km Length=0.020857700000000003 bus1=p1udm1772.1.2 bus2=p1ulv8771.1.2 switch=n enabled=y phases=2 Linecode=1P_UG_AL_1/0_Brenau_2

New Line.l(r:p1udm1771-p1udm1772) Units=km Length=0.0186509 bus1=p1udm1771.1.2 bus2=p1udm1772.1.2 switch=n enabled=y phases=2 Linecode=1P_UG_AL_1/0_Brenau_2

New Line.l(r:p1udm1770-p1udm1771) Units=km Length=0.00931968 bus1=p1udm1770.1.2 bus2=p1udm1771.1.2 switch=n enabled=y phases=2 Linecode=1P_UG_AL_1/0_Brenau_2

New Line.l(r:p1udm1770-p1udt480lv) Units=km Length=0.009325460000000002 bus1=p1udt480lv.1.2 bus2=p1udm1770.1.2 switch=n enabled=y phases=2 Linecode=1P_UG_AL_2/0_Converse_2

New Line.l(r:p1udm1773-p1ulv8783) Units=km Length=0.012155600000000003 bus1=p1udm1773.1.2 bus2=p1ulv8783.1.2 switch=n enabled=y phases=2 Linecode=1P_OH_AL_2/0_Rucina_2

New Line.l(r:p1udm1773-p1udt480lv) Units=km Length=0.0712392 bus1=p1udt480lv.1.2 bus2=p1udm1773.1.2 switch=n enabled=y phases=2 Linecode=1P_OH_AL_4/0_Zuzara_2

New Line.l(r:p1udt481lv-p1ulv2027) Units=km Length=0.0117503 bus1=p1udt481lv.1.2 bus2=p1ulv2027.1.2 switch=n enabled=y phases=2 Linecode=1P_OH_AL_2/0_Rucina_2

New Line.l(r:p1udm1774-p1ulv2024) Units=km Length=0.012113000000000002 bus1=p1udm1774.1.2 bus2=p1ulv2024.1.2 switch=n enabled=y phases=2 Linecode=1P_OH_AL_2/0_Rucina_2

New Line.l(r:p1udm1774-p1ulv2026) Units=km Length=0.00975992 bus1=p1udm1774.1.2 bus2=p1ulv2026.1.2 switch=n enabled=y phases=2 Linecode=1P_OH_AL_2/0_Rucina_2

New Line.l(r:p1udm1775-p1ulv2025) Units=km Length=0.00941525 bus1=p1udm1775.1.2 bus2=p1ulv2025.1.2 switch=n enabled=y phases=2 Linecode=1P_OH_AL_2/0_Rucina_2

New Line.l(r:p1udm1774-p1udm1775) Units=km Length=0.018389300000000004 bus1=p1udm1774.1.2 bus2=p1udm1775.1.2 switch=n enabled=y phases=2 Linecode=1P_OH_AL_2/0_Rucina_2

New Line.l(r:p1udm1774-p1udt481lv) Units=km Length=0.0183755 bus1=p1udt481lv.1.2 bus2=p1udm1774.1.2 switch=n enabled=y phases=2 Linecode=1P_OH_AL_2/0_Rucina_2

New Line.l(r:p1udm1778-p1ulv8787) Units=km Length=0.0113137 bus1=p1udm1778.1.2 bus2=p1ulv8787.1.2 switch=n enabled=y phases=2 Linecode=1P_OH_AL_2/0_Rucina_2

New Line.l(r:p1udm1778-p1udt481lv) Units=km Length=0.10182 bus1=p1udt481lv.1.2 bus2=p1udm1778.1.2 switch=n enabled=y phases=2 Linecode=1P_OH_AL_4/0_Zuzara_2

New Line.l(r:p1udt482lv-p1ulv2028) Units=km Length=0.00843736 bus1=p1udt482lv.1.2 bus2=p1ulv2028.1.2 switch=n enabled=y phases=2 Linecode=1P_OH_AL_2/0_Rucina_2

New Line.l(r:p1udt482lv-p1ulv8786) Units=km Length=0.0133291 bus1=p1udt482lv.1.2 bus2=p1ulv8786.1.2 switch=n enabled=y phases=2 Linecode=1P_OH_AL_2/0_Rucina_2

New Line.l(r:p1udt505lv-p1ulv2150) Units=km Length=0.0271952 bus1=p1udt505lv.1.2 bus2=p1ulv2150.1.2 switch=n enabled=y phases=2 Linecode=1P_OH_AL_4/0_Zuzara_2

New Line.l(r:p1udt538lv-p1ulv3424) Units=km Length=0.0138221 bus1=p1udt538lv.1.2 bus2=p1ulv3424.1.2 switch=n enabled=y phases=2 Linecode=1P_OH_AL_2/0_Rucina_2

New Line.l(r:p1udt538lv-p1ulv3426) Units=km Length=0.0204166 bus1=p1udt538lv.1.2 bus2=p1ulv3426.1.2 switch=n enabled=y phases=2 Linecode=1P_OH_AL_2/0_Rucina_2

New Line.l(r:p1udt538lv-p1ulv3427) Units=km Length=0.0102505 bus1=p1udt538lv.1.2 bus2=p1ulv3427.1.2 switch=n enabled=y phases=2 Linecode=1P_OH_AL_2/0_Rucina_2

New Line.l(r:p1udm2210-p1ulv3422) Units=km Length=0.0162441 bus1=p1udm2210.1.2 bus2=p1ulv3422.1.2 switch=n enabled=y phases=2 Linecode=1P_OH_AL_2/0_Rucina_2

New Line.l(r:p1udm2210-p1ulv3431) Units=km Length=0.010437 bus1=p1udm2210.1.2 bus2=p1ulv3431.1.2 switch=n enabled=y phases=2 Linecode=1P_OH_AL_2/0_Rucina_2

New Line.l(r:p1udm2215-p1ulv3429) Units=km Length=0.0157007 bus1=p1udm2215.1.2 bus2=p1ulv3429.1.2 switch=n enabled=y phases=2 Linecode=1P_OH_AL_2/0_Rucina_2

New Line.l(r:p1udm2215-p1ulv3430) Units=km Length=0.011675400000000002 bus1=p1udm2215.1.2 bus2=p1ulv3430.1.2 switch=n enabled=y phases=2 Linecode=1P_OH_AL_2/0_Rucina_2

New Line.l(r:p1udm2215-p1ulv3439) Units=km Length=0.0122875 bus1=p1udm2215.1.2 bus2=p1ulv3439.1.2 switch=n enabled=y phases=2 Linecode=1P_OH_AL_2/0_Rucina_2

New Line.l(r:p1udm2210-p1udm2215) Units=km Length=0.018638500000000002 bus1=p1udm2210.1.2 bus2=p1udm2215.1.2 switch=n enabled=y phases=2 Linecode=1P_OH_AL_2/0_Rucina_2

New Line.l(r:p1udm2210-p1udt538lv) Units=km Length=0.0186303 bus1=p1udt538lv.1.2 bus2=p1udm2210.1.2 switch=n enabled=y phases=2 Linecode=1P_OH_AL_2/0_Rucina_2

New Line.l(r:p1udm2214-p1ulv3428) Units=km Length=0.0100955 bus1=p1udm2214.1.2 bus2=p1ulv3428.1.2 switch=n enabled=y phases=2 Linecode=1P_OH_AL_2/0_Rucina_2

New Line.l(r:p1udm2209-p1ulv2381) Units=km Length=0.0197778 bus1=p1udm2209.1.2 bus2=p1ulv2381.1.2 switch=n enabled=y phases=2 Linecode=1P_OH_AL_2/0_Rucina_2

New Line.l(r:p1udm2209-p1ulv7959) Units=km Length=0.0117974 bus1=p1udm2209.1.2 bus2=p1ulv7959.1.2 switch=n enabled=y phases=2 Linecode=1P_OH_AL_2/0_Rucina_2

New Line.l(r:p1udm2209-p1udm2214) Units=km Length=0.0186303 bus1=p1udm2214.1.2 bus2=p1udm2209.1.2 switch=n enabled=y phases=2 Linecode=1P_OH_AL_2/0_Rucina_2

New Line.l(r:p1udm2214-p1udt538lv) Units=km Length=0.018638500000000002 bus1=p1udt538lv.1.2 bus2=p1udm2214.1.2 switch=n enabled=y phases=2 Linecode=1P_OH_AL_2/0_Rucina_2

New Line.l(r:p1udm2225-p1ulv2386) Units=km Length=0.0106303 bus1=p1udm2225.1.2 bus2=p1ulv2386.1.2 switch=n enabled=y phases=2 Linecode=1P_OH_AL_2/0_Rucina_2

New Line.l(r:p1udm2224-p1ulv2384) Units=km Length=0.00960554 bus1=p1udm2224.1.2 bus2=p1ulv2384.1.2 switch=n enabled=y phases=2 Linecode=1P_OH_AL_2/0_Rucina_2

New Line.l(r:p1udm2224-p1udm2225) Units=km Length=0.0187897 bus1=p1udm2225.1.2 bus2=p1udm2224.1.2 switch=n enabled=y phases=2 Linecode=1P_OH_AL_2/0_Rucina_2

New Line.l(r:p1udm2225-p1udt541lv) Units=km Length=0.0187923 bus1=p1udt541lv.1.2 bus2=p1udm2225.1.2 switch=n enabled=y phases=2 Linecode=1P_OH_AL_2/0_Rucina_2

New Line.l(r:p1udm2226-p1ulv3582) Units=km Length=0.0136348 bus1=p1udm2226.1.2 bus2=p1ulv3582.1.2 switch=n enabled=y phases=2 Linecode=1P_UG_AL_1/0_Brenau_2

New Line.l(r:p1udm2226-p1udt541lv) Units=km Length=0.0844371 bus1=p1udt541lv.1.2 bus2=p1udm2226.1.2 switch=n enabled=y phases=2 Linecode=1P_OH_AL_4/0_Zuzara_2

New Line.l(r:p1udm2227-p1ulv8761) Units=km Length=0.00698891 bus1=p1udm2227.1.2 bus2=p1ulv8761.1.2 switch=n enabled=y phases=2 Linecode=1P_UG_AL_4/0_Sweetbriar_2

New Line.l(r:p1udm2227-p1udt541lv) Units=km Length=0.06536980000000002 bus1=p1udt541lv.1.2 bus2=p1udm2227.1.2 switch=n enabled=y phases=2 Linecode=1P_OH_AL_4/0_Zuzara_2

New Line.l(r:p1udt542lv-p1ulv2390) Units=km Length=0.0102426 bus1=p1udt542lv.1.2 bus2=p1ulv2390.1.2 switch=n enabled=y phases=2 Linecode=1P_UG_AL_1/0_Brenau_2

New Line.l(r:p1udt542lv-p1ulv3584) Units=km Length=0.00779642 bus1=p1udt542lv.1.2 bus2=p1ulv3584.1.2 switch=n enabled=y phases=2 Linecode=1P_UG_AL_1/0_Brenau_2

New Line.l(r:p1udm2229-p1ulv2389) Units=km Length=0.0104738 bus1=p1udm2229.1.2 bus2=p1ulv2389.1.2 switch=n enabled=y phases=2 Linecode=1P_UG_AL_1/0_Brenau_2

New Line.l(r:p1udm2229-p1ulv3583) Units=km Length=0.00807793 bus1=p1udm2229.1.2 bus2=p1ulv3583.1.2 switch=n enabled=y phases=2 Linecode=1P_UG_AL_1/0_Brenau_2

New Line.l(r:p1udm2228-p1ulv2388) Units=km Length=0.0109749 bus1=p1udm2228.1.2 bus2=p1ulv2388.1.2 switch=n enabled=y phases=2 Linecode=1P_UG_AL_1/0_Brenau_2

New Line.l(r:p1udm2228-p1udm2229) Units=km Length=0.00937887 bus1=p1udm2229.1.2 bus2=p1udm2228.1.2 switch=n enabled=y phases=2 Linecode=1P_UG_AL_1/0_Brenau_2

New Line.l(r:p1udm2229-p1udt542lv) Units=km Length=0.00937887 bus1=p1udt542lv.1.2 bus2=p1udm2229.1.2 switch=n enabled=y phases=2 Linecode=1P_UG_AL_1/0_Brenau_2

New Line.l(r:p1udm2231-p1ulv2391) Units=km Length=0.00783925 bus1=p1udm2231.1.2 bus2=p1ulv2391.1.2 switch=n enabled=y phases=2 Linecode=1P_UG_AL_1/0_Brenau_2

New Line.l(r:p1udm2232-p1ulv2393) Units=km Length=0.00777746 bus1=p1udm2232.1.2 bus2=p1ulv2393.1.2 switch=n enabled=y phases=2 Linecode=1P_UG_AL_1/0_Brenau_2

New Line.l(r:p1udm2232-p1ulv8752) Units=km Length=0.0264924 bus1=p1udm2232.1.2 bus2=p1ulv8752.1.2 switch=n enabled=y phases=2 Linecode=1P_UG_AL_1/0_Brenau_2

New Line.l(r:p1udm2233-p1ulv2394) Units=km Length=0.00852482 bus1=p1udm2233.1.2 bus2=p1ulv2394.1.2 switch=n enabled=y phases=2 Linecode=1P_UG_AL_1/0_Brenau_2
