New Load.load_p1ulv1971_1 conn=wye bus1=p1ulv1971.1 kV=0.12 Vminpu=0.8 Vmaxpu=1.2 model=1 kW=9.059295857388017 kvar=2.2042928489340077 Phases=1 !yearly=res_kw_2392_pu

New Load.load_p1ulv1971_2 conn=wye bus1=p1ulv1971.2 kV=0.12 Vminpu=0.8 Vmaxpu=1.2 model=1 kW=9.059295857388017 kvar=2.2042928489340077 Phases=1 !yearly=res_kw_2392_pu

New Load.load_p1ulv1972_1 conn=wye bus1=p1ulv1972.1 kV=0.12 Vminpu=0.8 Vmaxpu=1.2 model=1 kW=2.684904254134122 kvar=0.42635901069761617 Phases=1 !yearly=res_kw_2114_pu

New Load.load_p1ulv1972_2 conn=wye bus1=p1ulv1972.2 kV=0.12 Vminpu=0.8 Vmaxpu=1.2 model=1 kW=2.684904254134122 kvar=0.42635901069761617 Phases=1 !yearly=res_kw_2114_pu

New Load.load_p1ulv1973_1 conn=wye bus1=p1ulv1973.1 kV=0.12 Vminpu=0.8 Vmaxpu=1.2 model=1 kW=2.445994317964332 kvar=0.8597073331859654 Phases=1 !yearly=res_kw_13148_pu

New Load.load_p1ulv1973_2 conn=wye bus1=p1ulv1973.2 kV=0.12 Vminpu=0.8 Vmaxpu=1.2 model=1 kW=2.445994317964332 kvar=0.8597073331859654 Phases=1 !yearly=res_kw_13148_pu

New Load.load_p1ulv1974_1 conn=wye bus1=p1ulv1973.1 kV=0.12 Vminpu=0.8 Vmaxpu=1.2 model=1 kW=1.3067870545822593 kvar=0.7187638131848453 Phases=1 !yearly=res_kw_12787_pu

New Load.load_p1ulv1974_2 conn=wye bus1=p1ulv1973.2 kV=0.12 Vminpu=0.8 Vmaxpu=1.2 model=1 kW=1.3067870545822593 kvar=0.7187638131848453 Phases=1 !yearly=res_kw_12787_pu

New Load.load_p1ulv1975_1 conn=wye bus1=p1ulv1975.1 kV=0.12 Vminpu=0.8 Vmaxpu=1.2 model=1 kW=0.9514684311995553 kvar=0.2334918177062075 Phases=1 !yearly=res_kw_8404_pu

New Load.load_p1ulv1975_2 conn=wye bus1=p1ulv1975.2 kV=0.12 Vminpu=0.8 Vmaxpu=1.2 model=1 kW=0.9514684311995553 kvar=0.2334918177062075 Phases=1 !yearly=res_kw_8404_pu

New Load.load_p1ulv1976_1 conn=wye bus1=p1ulv1976.1 kV=0.12 Vminpu=0.8 Vmaxpu=1.2 model=1 kW=1.5788343693478561 kvar=1.0852895205351165 Phases=1 !yearly=res_kw_2483_pu

New Load.load_p1ulv1976_2 conn=wye bus1=p1ulv1976.2 kV=0.12 Vminpu=0.8 Vmaxpu=1.2 model=1 kW=1.5788343693478561 kvar=1.0852895205351165 Phases=1 !yearly=res_kw_2483_pu

New Load.load_p1ulv1977_1 conn=wye bus1=p1ulv1977.1 kV=0.12 Vminpu=0.8 Vmaxpu=1.2 model=1 kW=1.8551432530114744 kvar=0.7923471410512946 Phases=1 !yearly=res_kw_14995_pu

New Load.load_p1ulv1977_2 conn=wye bus1=p1ulv1977.2 kV=0.12 Vminpu=0.8 Vmaxpu=1.2 model=1 kW=1.8551432530114744 kvar=0.7923471410512946 Phases=1 !yearly=res_kw_14995_pu

New Load.load_p1ulv1978_1 conn=wye bus1=p1ulv1978.1 kV=0.12 Vminpu=0.8 Vmaxpu=1.2 model=1 kW=2.979412568551828 kvar=0.6388062325407575 Phases=1 !yearly=res_kw_11428_pu

New Load.load_p1ulv1978_2 conn=wye bus1=p1ulv1978.2 kV=0.12 Vminpu=0.8 Vmaxpu=1.2 model=1 kW=2.979412568551828 kvar=0.6388062325407575 Phases=1 !yearly=res_kw_11428_pu

New Load.load_p1ulv1979_1 conn=wye bus1=p1ulv1979.1 kV=0.12 Vminpu=0.8 Vmaxpu=1.2 model=1 kW=2.08053934867757 kvar=0.19082517830123075 Phases=1 !yearly=res_kw_11220_pu

New Load.load_p1ulv1979_2 conn=wye bus1=p1ulv1979.2 kV=0.12 Vminpu=0.8 Vmaxpu=1.2 model=1 kW=2.08053934867757 kvar=0.19082517830123075 Phases=1 !yearly=res_kw_11220_pu

New Load.load_p1ulv1980_1 conn=wye bus1=p1ulv1980.1 kV=0.12 Vminpu=0.8 Vmaxpu=1.2 model=1 kW=4.151614881054509 kvar=1.118271801633054 Phases=1 !yearly=res_kw_8228_pu

New Load.load_p1ulv1980_2 conn=wye bus1=p1ulv1980.2 kV=0.12 Vminpu=0.8 Vmaxpu=1.2 model=1 kW=4.151614881054509 kvar=1.118271801633054 Phases=1 !yearly=res_kw_8228_pu

New Load.load_p1ulv1981_1 conn=wye bus1=p1ulv1981.1 kV=0.12 Vminpu=0.8 Vmaxpu=1.2 model=1 kW=2.24661435823502 kvar=0.9216210209688748 Phases=1 !yearly=res_kw_2521_pu

New Load.load_p1ulv1981_2 conn=wye bus1=p1ulv1981.2 kV=0.12 Vminpu=0.8 Vmaxpu=1.2 model=1 kW=2.24661435823502 kvar=0.9216210209688748 Phases=1 !yearly=res_kw_2521_pu

New Load.load_p1ulv1982_1 conn=wye bus1=p1ulv1982.1 kV=0.12 Vminpu=0.8 Vmaxpu=1.2 model=1 kW=0.7400090938863744 kvar=0.257745187793523 Phases=1 !yearly=res_kw_865_pu

New Load.load_p1ulv1982_2 conn=wye bus1=p1ulv1982.2 kV=0.12 Vminpu=0.8 Vmaxpu=1.2 model=1 kW=0.7400090938863744 kvar=0.257745187793523 Phases=1 !yearly=res_kw_865_pu

New Load.load_p1ulv1983_1 conn=wye bus1=p1ulv1983.1 kV=0.12 Vminpu=0.8 Vmaxpu=1.2 model=1 kW=3.4277509099642414 kvar=0.3672358075563217 Phases=1 !yearly=res_kw_3592_pu

New Load.load_p1ulv1983_2 conn=wye bus1=p1ulv1983.2 kV=0.12 Vminpu=0.8 Vmaxpu=1.2 model=1 kW=3.4277509099642414 kvar=0.3672358075563217 Phases=1 !yearly=res_kw_3592_pu

New Load.load_p1ulv1984_1 conn=wye bus1=p1ulv1984.1 kV=0.12 Vminpu=0.8 Vmaxpu=1.2 model=1 kW=3.473536931114732 kvar=0.8218341877235366 Phases=1 !yearly=res_kw_4198_pu

New Load.load_p1ulv1984_2 conn=wye bus1=p1ulv1984.2 kV=0.12 Vminpu=0.8 Vmaxpu=1.2 model=1 kW=3.473536931114732 kvar=0.8218341877235366 Phases=1 !yearly=res_kw_4198_pu

New Load.load_p1ulv1985_1 conn=wye bus1=p1ulv1985.1 kV=0.12 Vminpu=0.8 Vmaxpu=1.2 model=1 kW=2.661093206685493 kvar=0.9884186563142763 Phases=1 !yearly=res_kw_5685_pu

New Load.load_p1ulv1985_2 conn=wye bus1=p1ulv1985.2 kV=0.12 Vminpu=0.8 Vmaxpu=1.2 model=1 kW=2.661093206685493 kvar=0.9884186563142763 Phases=1 !yearly=res_kw_5685_pu

New Load.load_p1ulv1986_1 conn=wye bus1=p1ulv1986.1 kV=0.12 Vminpu=0.8 Vmaxpu=1.2 model=1 kW=1.3510125413548424 kvar=0.5621017434083633 Phases=1 !yearly=res_kw_6051_pu

New Load.load_p1ulv1986_2 conn=wye bus1=p1ulv1986.2 kV=0.12 Vminpu=0.8 Vmaxpu=1.2 model=1 kW=1.3510125413548424 kvar=0.5621017434083633 Phases=1 !yearly=res_kw_6051_pu

New Load.load_p1ulv1987_1 conn=wye bus1=p1ulv1987.1 kV=0.12 Vminpu=0.8 Vmaxpu=1.2 model=1 kW=0.696455257947775 kvar=0.26943121901999684 Phases=1 !yearly=res_kw_8494_pu

New Load.load_p1ulv1987_2 conn=wye bus1=p1ulv1987.2 kV=0.12 Vminpu=0.8 Vmaxpu=1.2 model=1 kW=0.696455257947775 kvar=0.26943121901999684 Phases=1 !yearly=res_kw_8494_pu

New Load.load_p1ulv1988_1 conn=wye bus1=p1ulv1988.1 kV=0.12 Vminpu=0.8 Vmaxpu=1.2 model=1 kW=2.383812527298834 kvar=0.7249515140736078 Phases=1 !yearly=res_kw_11737_pu

New Load.load_p1ulv1988_2 conn=wye bus1=p1ulv1988.2 kV=0.12 Vminpu=0.8 Vmaxpu=1.2 model=1 kW=2.383812527298834 kvar=0.7249515140736078 Phases=1 !yearly=res_kw_11737_pu

New Load.load_p1ulv1989_1 conn=wye bus1=p1ulv1989.1 kV=0.12 Vminpu=0.8 Vmaxpu=1.2 model=1 kW=1.9029063430901945 kvar=0.888181875092591 Phases=1 !yearly=res_kw_982_pu

New Load.load_p1ulv1989_2 conn=wye bus1=p1ulv1989.2 kV=0.12 Vminpu=0.8 Vmaxpu=1.2 model=1 kW=1.9029063430901945 kvar=0.888181875092591 Phases=1 !yearly=res_kw_982_pu

New Load.load_p1ulv1990_1 conn=wye bus1=p1ulv1990.1 kV=0.12 Vminpu=0.8 Vmaxpu=1.2 model=1 kW=2.2142575595505583 kvar=0.8511261488468437 Phases=1 !yearly=res_kw_6915_pu

New Load.load_p1ulv1990_2 conn=wye bus1=p1ulv1990.2 kV=0.12 Vminpu=0.8 Vmaxpu=1.2 model=1 kW=2.2142575595505583 kvar=0.8511261488468437 Phases=1 !yearly=res_kw_6915_pu

New Load.load_p1ulv1991_1 conn=wye bus1=p1ulv1991.1 kV=0.12 Vminpu=0.8 Vmaxpu=1.2 model=1 kW=4.4153469715627365 kvar=0.9730712591116467 Phases=1 !yearly=res_kw_7370_pu

New Load.load_p1ulv1991_2 conn=wye bus1=p1ulv1991.2 kV=0.12 Vminpu=0.8 Vmaxpu=1.2 model=1 kW=4.4153469715627365 kvar=0.9730712591116467 Phases=1 !yearly=res_kw_7370_pu

New Load.load_p1ulv1992_1 conn=wye bus1=p1ulv1992.1 kV=0.12 Vminpu=0.8 Vmaxpu=1.2 model=1 kW=3.436124603620977 kvar=0.16563474326713715 Phases=1 !yearly=res_kw_3092_pu

New Load.load_p1ulv1992_2 conn=wye bus1=p1ulv1992.2 kV=0.12 Vminpu=0.8 Vmaxpu=1.2 model=1 kW=3.436124603620977 kvar=0.16563474326713715 Phases=1 !yearly=res_kw_3092_pu

New Load.load_p1ulv1993_1 conn=wye bus1=p1ulv1993.1 kV=0.12 Vminpu=0.8 Vmaxpu=1.2 model=1 kW=1.0527025662462328 kvar=0.37071631486053974 Phases=1 !yearly=res_kw_15158_pu

New Load.load_p1ulv1993_2 conn=wye bus1=p1ulv1993.2 kV=0.12 Vminpu=0.8 Vmaxpu=1.2 model=1 kW=1.0527025662462328 kvar=0.37071631486053974 Phases=1 !yearly=res_kw_15158_pu

New Load.load_p1ulv1994_1 conn=wye bus1=p1ulv1994.1 kV=0.12 Vminpu=0.8 Vmaxpu=1.2 model=1 kW=2.438316346451239 kvar=0.6915244213249778 Phases=1 !yearly=res_kw_1109_pu

New Load.load_p1ulv1994_2 conn=wye bus1=p1ulv1994.2 kV=0.12 Vminpu=0.8 Vmaxpu=1.2 model=1 kW=2.438316346451239 kvar=0.6915244213249778 Phases=1 !yearly=res_kw_1109_pu

New Load.load_p1ulv1995_1 conn=wye bus1=p1ulv1995.1 kV=0.12 Vminpu=0.8 Vmaxpu=1.2 model=1 kW=1.9704992306107585 kvar=0.6727479003997489 Phases=1 !yearly=res_kw_11442_pu

New Load.load_p1ulv1995_2 conn=wye bus1=p1ulv1995.2 kV=0.12 Vminpu=0.8 Vmaxpu=1.2 model=1 kW=1.9704992306107585 kvar=0.6727479003997489 Phases=1 !yearly=res_kw_11442_pu

New Load.load_p1ulv1996_1 conn=wye bus1=p1ulv1996.1 kV=0.12 Vminpu=0.8 Vmaxpu=1.2 model=1 kW=2.951462170813944 kvar=1.3337201697914611 Phases=1 !yearly=res_kw_9789_pu

New Load.load_p1ulv1996_2 conn=wye bus1=p1ulv1996.2 kV=0.12 Vminpu=0.8 Vmaxpu=1.2 model=1 kW=2.951462170813944 kvar=1.3337201697914611 Phases=1 !yearly=res_kw_9789_pu

New Load.load_p1ulv1997_1 conn=wye bus1=p1ulv1991.1 kV=0.12 Vminpu=0.8 Vmaxpu=1.2 model=1 kW=3.1792953423641372 kvar=0.1901643639870233 Phases=1 !yearly=res_kw_10387_pu

New Load.load_p1ulv1997_2 conn=wye bus1=p1ulv1991.2 kV=0.12 Vminpu=0.8 Vmaxpu=1.2 model=1 kW=3.1792953423641372 kvar=0.1901643639870233 Phases=1 !yearly=res_kw_10387_pu

New Load.load_p1ulv1998_1 conn=wye bus1=p1ulv1998.1 kV=0.12 Vminpu=0.8 Vmaxpu=1.2 model=1 kW=3.995088529806887 kvar=0.7945918151932094 Phases=1 !yearly=res_kw_5565_pu

New Load.load_p1ulv1998_2 conn=wye bus1=p1ulv1998.2 kV=0.12 Vminpu=0.8 Vmaxpu=1.2 model=1 kW=3.995088529806887 kvar=0.7945918151932094 Phases=1 !yearly=res_kw_5565_pu

New Load.load_p1ulv1999_1 conn=wye bus1=p1ulv1999.1 kV=0.12 Vminpu=0.8 Vmaxpu=1.2 model=1 kW=1.8309189378455104 kvar=0.6069744647018672 Phases=1 !yearly=res_kw_10071_pu

New Load.load_p1ulv1999_2 conn=wye bus1=p1ulv1999.2 kV=0.12 Vminpu=0.8 Vmaxpu=1.2 model=1 kW=1.8309189378455104 kvar=0.6069744647018672 Phases=1 !yearly=res_kw_10071_pu

New Load.load_p1ulv2000_1 conn=wye bus1=p1ulv2000.1 kV=0.12 Vminpu=0.8 Vmaxpu=1.2 model=1 kW=1.8783977603944257 kvar=0.657771119683104 Phases=1 !yearly=res_kw_9009_pu

New Load.load_p1ulv2000_2 conn=wye bus1=p1ulv2000.2 kV=0.12 Vminpu=0.8 Vmaxpu=1.2 model=1 kW=1.8783977603944257 kvar=0.657771119683104 Phases=1 !yearly=res_kw_9009_pu

New Load.load_p1ulv2001_1 conn=wye bus1=p1ulv2001.1 kV=0.12 Vminpu=0.8 Vmaxpu=1.2 model=1 kW=3.587970132844775 kvar=0.1303769308718786 Phases=1 !yearly=res_kw_319_pu

New Load.load_p1ulv2001_2 conn=wye bus1=p1ulv2001.2 kV=0.12 Vminpu=0.8 Vmaxpu=1.2 model=1 kW=3.587970132844775 kvar=0.1303769308718786 Phases=1 !yearly=res_kw_319_pu

New Load.load_p1ulv2002_1 conn=wye bus1=p1ulv2002.1 kV=0.12 Vminpu=0.8 Vmaxpu=1.2 model=1 kW=1.101351979265181 kvar=0.351458103940822 Phases=1 !yearly=res_kw_11315_pu

New Load.load_p1ulv2002_2 conn=wye bus1=p1ulv2002.2 kV=0.12 Vminpu=0.8 Vmaxpu=1.2 model=1 kW=1.101351979265181 kvar=0.351458103940822 Phases=1 !yearly=res_kw_11315_pu

New Load.load_p1ulv2003_1 conn=wye bus1=p1ulv2003.1 kV=0.12 Vminpu=0.8 Vmaxpu=1.2 model=1 kW=1.5322190914905935 kvar=0.6517300297340308 Phases=1 !yearly=res_kw_11915_pu

New Load.load_p1ulv2003_2 conn=wye bus1=p1ulv2003.2 kV=0.12 Vminpu=0.8 Vmaxpu=1.2 model=1 kW=1.5322190914905935 kvar=0.6517300297340308 Phases=1 !yearly=res_kw_11915_pu

New Load.load_p1ulv2004_1 conn=wye bus1=p1ulv2004.1 kV=0.12 Vminpu=0.8 Vmaxpu=1.2 model=1 kW=2.9928270585646484 kvar=1.0482885249865175 Phases=1 !yearly=res_kw_11071_pu

New Load.load_p1ulv2004_2 conn=wye bus1=p1ulv2004.2 kV=0.12 Vminpu=0.8 Vmaxpu=1.2 model=1 kW=2.9928270585646484 kvar=1.0482885249865175 Phases=1 !yearly=res_kw_11071_pu

New Load.load_p1ulv2005_1 conn=wye bus1=p1ulv2005.1 kV=0.12 Vminpu=0.8 Vmaxpu=1.2 model=1 kW=0.6524083002915736 kvar=0.21201745820683848 Phases=1 !yearly=res_kw_14133_pu

New Load.load_p1ulv2005_2 conn=wye bus1=p1ulv2005.2 kV=0.12 Vminpu=0.8 Vmaxpu=1.2 model=1 kW=0.6524083002915736 kvar=0.21201745820683848 Phases=1 !yearly=res_kw_14133_pu

New Load.load_p1ulv2006_1 conn=wye bus1=p1ulv2006.1 kV=0.12 Vminpu=0.8 Vmaxpu=1.2 model=1 kW=4.61693131501925 kvar=1.2262611043749607 Phases=1 !yearly=res_kw_10197_pu

New Load.load_p1ulv2006_2 conn=wye bus1=p1ulv2006.2 kV=0.12 Vminpu=0.8 Vmaxpu=1.2 model=1 kW=4.61693131501925 kvar=1.2262611043749607 Phases=1 !yearly=res_kw_10197_pu

New Load.load_p1ulv2007_1 conn=wye bus1=p1ulv2007.1 kV=0.12 Vminpu=0.8 Vmaxpu=1.2 model=1 kW=2.713755381328842 kvar=0.08332606525685386 Phases=1 !yearly=res_kw_12019_pu

New Load.load_p1ulv2007_2 conn=wye bus1=p1ulv2007.2 kV=0.12 Vminpu=0.8 Vmaxpu=1.2 model=1 kW=2.713755381328842 kvar=0.08332606525685386 Phases=1 !yearly=res_kw_12019_pu

New Load.load_p1ulv2008_1 conn=wye bus1=p1ulv2008.1 kV=0.12 Vminpu=0.8 Vmaxpu=1.2 model=1 kW=3.6571308432470016 kvar=0.20663535364298297 Phases=1 !yearly=res_kw_9618_pu

New Load.load_p1ulv2008_2 conn=wye bus1=p1ulv2008.2 kV=0.12 Vminpu=0.8 Vmaxpu=1.2 model=1 kW=3.6571308432470016 kvar=0.20663535364298297 Phases=1 !yearly=res_kw_9618_pu

New Load.load_p1ulv2009_1 conn=wye bus1=p1ulv2009.1 kV=0.12 Vminpu=0.8 Vmaxpu=1.2 model=1 kW=2.115569361753181 kvar=0.9348638272793568 Phases=1 !yearly=res_kw_7885_pu

New Load.load_p1ulv2009_2 conn=wye bus1=p1ulv2009.2 kV=0.12 Vminpu=0.8 Vmaxpu=1.2 model=1 kW=2.115569361753181 kvar=0.9348638272793568 Phases=1 !yearly=res_kw_7885_pu

New Load.load_p1ulv2010_1 conn=wye bus1=p1ulv2010.1 kV=0.12 Vminpu=0.8 Vmaxpu=1.2 model=1 kW=2.4477708140814496 kvar=1.2695070292795452 Phases=1 !yearly=res_kw_14077_pu

New Load.load_p1ulv2010_2 conn=wye bus1=p1ulv2010.2 kV=0.12 Vminpu=0.8 Vmaxpu=1.2 model=1 kW=2.4477708140814496 kvar=1.2695070292795452 Phases=1 !yearly=res_kw_14077_pu

New Load.load_p1ulv2011_1 conn=wye bus1=p1ulv2011.1 kV=0.12 Vminpu=0.8 Vmaxpu=1.2 model=1 kW=2.7961731487046246 kvar=1.0324526641097378 Phases=1 !yearly=res_kw_2453_pu

New Load.load_p1ulv2011_2 conn=wye bus1=p1ulv2011.2 kV=0.12 Vminpu=0.8 Vmaxpu=1.2 model=1 kW=2.7961731487046246 kvar=1.0324526641097378 Phases=1 !yearly=res_kw_2453_pu

New Load.load_p1ulv2012_1 conn=wye bus1=p1ulv2011.1 kV=0.12 Vminpu=0.8 Vmaxpu=1.2 model=1 kW=1.4663769608466568 kvar=0.5502546109327153 Phases=1 !yearly=res_kw_678_pu

New Load.load_p1ulv2012_2 conn=wye bus1=p1ulv2011.2 kV=0.12 Vminpu=0.8 Vmaxpu=1.2 model=1 kW=1.4663769608466568 kvar=0.5502546109327153 Phases=1 !yearly=res_kw_678_pu

New Load.load_p1ulv2013_1 conn=wye bus1=p1ulv2013.1 kV=0.12 Vminpu=0.8 Vmaxpu=1.2 model=1 kW=1.4663769608466568 kvar=0.5502546109327153 Phases=1 !yearly=res_kw_678_pu

New Load.load_p1ulv2013_2 conn=wye bus1=p1ulv2013.2 kV=0.12 Vminpu=0.8 Vmaxpu=1.2 model=1 kW=1.4663769608466568 kvar=0.5502546109327153 Phases=1 !yearly=res_kw_678_pu

New Load.load_p1ulv2014_1 conn=wye bus1=p1ulv2014.1 kV=0.12 Vminpu=0.8 Vmaxpu=1.2 model=1 kW=1.0817990316674126 kvar=0.6606347783342864 Phases=1 !yearly=res_kw_7820_pu

New Load.load_p1ulv2014_2 conn=wye bus1=p1ulv2014.2 kV=0.12 Vminpu=0.8 Vmaxpu=1.2 model=1 kW=1.0817990316674126 kvar=0.6606347783342864 Phases=1 !yearly=res_kw_7820_pu

New Load.load_p1ulv2015_1 conn=wye bus1=p1ulv2015.1 kV=0.12 Vminpu=0.8 Vmaxpu=1.2 model=1 kW=4.550894852621135 kvar=1.581561675901674 Phases=1 !yearly=res_kw_2067_pu

New Load.load_p1ulv2015_2 conn=wye bus1=p1ulv2015.2 kV=0.12 Vminpu=0.8 Vmaxpu=1.2 model=1 kW=4.550894852621135 kvar=1.581561675901674 Phases=1 !yearly=res_kw_2067_pu

New Load.load_p1ulv2016_1 conn=wye bus1=p1ulv2016.1 kV=0.12 Vminpu=0.8 Vmaxpu=1.2 model=1 kW=3.163783450414519 kvar=0.9341498819217712 Phases=1 !yearly=res_kw_7129_pu

New Load.load_p1ulv2016_2 conn=wye bus1=p1ulv2016.2 kV=0.12 Vminpu=0.8 Vmaxpu=1.2 model=1 kW=3.163783450414519 kvar=0.9341498819217712 Phases=1 !yearly=res_kw_7129_pu

New Load.load_p1ulv2017_1 conn=wye bus1=p1ulv2017.1 kV=0.12 Vminpu=0.8 Vmaxpu=1.2 model=1 kW=1.8309189378455104 kvar=0.6069744647018672 Phases=1 !yearly=res_kw_10071_pu

New Load.load_p1ulv2017_2 conn=wye bus1=p1ulv2017.2 kV=0.12 Vminpu=0.8 Vmaxpu=1.2 model=1 kW=1.8309189378455104 kvar=0.6069744647018672 Phases=1 !yearly=res_kw_10071_pu

New Load.load_p1ulv2018_1 conn=wye bus1=p1ulv2018.1 kV=0.12 Vminpu=0.8 Vmaxpu=1.2 model=1 kW=6.912397004811435 kvar=1.4378304050727566 Phases=1 !yearly=res_kw_6619_pu

New Load.load_p1ulv2018_2 conn=wye bus1=p1ulv2018.2 kV=0.12 Vminpu=0.8 Vmaxpu=1.2 model=1 kW=6.912397004811435 kvar=1.4378304050727566 Phases=1 !yearly=res_kw_6619_pu

New Load.load_p1ulv2019_1 conn=wye bus1=p1ulv2019.1 kV=0.12 Vminpu=0.8 Vmaxpu=1.2 model=1 kW=0.7400090938863744 kvar=0.257745187793523 Phases=1 !yearly=res_kw_865_pu

New Load.load_p1ulv2019_2 conn=wye bus1=p1ulv2019.2 kV=0.12 Vminpu=0.8 Vmaxpu=1.2 model=1 kW=0.7400090938863744 kvar=0.257745187793523 Phases=1 !yearly=res_kw_865_pu

New Load.load_p1ulv2020_1 conn=wye bus1=p1ulv2020.1 kV=0.12 Vminpu=0.8 Vmaxpu=1.2 model=1 kW=2.3708756763519556 kvar=0.8552600463353388 Phases=1 !yearly=res_kw_7821_pu

New Load.load_p1ulv2020_2 conn=wye bus1=p1ulv2020.2 kV=0.12 Vminpu=0.8 Vmaxpu=1.2 model=1 kW=2.3708756763519556 kvar=0.8552600463353388 Phases=1 !yearly=res_kw_7821_pu

New Load.load_p1ulv2021_1 conn=wye bus1=p1ulv2021.1 kV=0.12 Vminpu=0.8 Vmaxpu=1.2 model=1 kW=2.2142575595505583 kvar=0.8511261488468437 Phases=1 !yearly=res_kw_6915_pu

New Load.load_p1ulv2021_2 conn=wye bus1=p1ulv2021.2 kV=0.12 Vminpu=0.8 Vmaxpu=1.2 model=1 kW=2.2142575595505583 kvar=0.8511261488468437 Phases=1 !yearly=res_kw_6915_pu

New Load.load_p1ulv2022_1 conn=wye bus1=p1ulv2022.1 kV=0.12 Vminpu=0.8 Vmaxpu=1.2 model=1 kW=2.298373512871933 kvar=0.08780226018253445 Phases=1 !yearly=res_kw_12305_pu

New Load.load_p1ulv2022_2 conn=wye bus1=p1ulv2022.2 kV=0.12 Vminpu=0.8 Vmaxpu=1.2 model=1 kW=2.298373512871933 kvar=0.08780226018253445 Phases=1 !yearly=res_kw_12305_pu

New Load.load_p1ulv2023_1 conn=wye bus1=p1ulv2023.1 kV=0.12 Vminpu=0.8 Vmaxpu=1.2 model=1 kW=1.7509693786792864 kvar=0.6372907122984698 Phases=1 !yearly=res_kw_14104_pu

New Load.load_p1ulv2023_2 conn=wye bus1=p1ulv2023.2 kV=0.12 Vminpu=0.8 Vmaxpu=1.2 model=1 kW=1.7509693786792864 kvar=0.6372907122984698 Phases=1 !yearly=res_kw_14104_pu

New Load.load_p1ulv2024_1 conn=wye bus1=p1ulv2024.1 kV=0.12 Vminpu=0.8 Vmaxpu=1.2 model=1 kW=4.151480398016275 kvar=0.11399865992730775 Phases=1 !yearly=res_kw_4165_pu

New Load.load_p1ulv2024_2 conn=wye bus1=p1ulv2024.2 kV=0.12 Vminpu=0.8 Vmaxpu=1.2 model=1 kW=4.151480398016275 kvar=0.11399865992730775 Phases=1 !yearly=res_kw_4165_pu

New Load.load_p1ulv2025_1 conn=wye bus1=p1ulv2025.1 kV=0.12 Vminpu=0.8 Vmaxpu=1.2 model=1 kW=6.702384034103662 kvar=1.5309301988324002 Phases=1 !yearly=res_kw_9612_pu

New Load.load_p1ulv2025_2 conn=wye bus1=p1ulv2025.2 kV=0.12 Vminpu=0.8 Vmaxpu=1.2 model=1 kW=6.702384034103662 kvar=1.5309301988324002 Phases=1 !yearly=res_kw_9612_pu

New Load.load_p1ulv2026_1 conn=wye bus1=p1ulv2026.1 kV=0.12 Vminpu=0.8 Vmaxpu=1.2 model=1 kW=1.919115741074501 kvar=0.2850908988242494 Phases=1 !yearly=res_kw_10222_pu

New Load.load_p1ulv2026_2 conn=wye bus1=p1ulv2026.2 kV=0.12 Vminpu=0.8 Vmaxpu=1.2 model=1 kW=1.919115741074501 kvar=0.2850908988242494 Phases=1 !yearly=res_kw_10222_pu

New Load.load_p1ulv2027_1 conn=wye bus1=p1ulv2027.1 kV=0.12 Vminpu=0.8 Vmaxpu=1.2 model=1 kW=2.6976007564693765 kvar=1.0012223642000246 Phases=1 !yearly=res_kw_7043_pu

New Load.load_p1ulv2027_2 conn=wye bus1=p1ulv2027.2 kV=0.12 Vminpu=0.8 Vmaxpu=1.2 model=1 kW=2.6976007564693765 kvar=1.0012223642000246 Phases=1 !yearly=res_kw_7043_pu

New Load.load_p1ulv2028_1 conn=wye bus1=p1ulv2028.1 kV=0.12 Vminpu=0.8 Vmaxpu=1.2 model=1 kW=2.7595356845335988 kvar=1.2415476755284698 Phases=1 !yearly=res_kw_14782_pu

New Load.load_p1ulv2028_2 conn=wye bus1=p1ulv2028.2 kV=0.12 Vminpu=0.8 Vmaxpu=1.2 model=1 kW=2.7595356845335988 kvar=1.2415476755284698 Phases=1 !yearly=res_kw_14782_pu

New Load.load_p1ulv2150_1 conn=wye bus1=p1ulv2150.1 kV=0.12 Vminpu=0.8 Vmaxpu=1.2 model=1 kW=1.7140027619551461 kvar=0.6451780928528094 Phases=1 !yearly=res_kw_6140_pu

New Load.load_p1ulv2150_2 conn=wye bus1=p1ulv2150.2 kV=0.12 Vminpu=0.8 Vmaxpu=1.2 model=1 kW=1.7140027619551461 kvar=0.6451780928528094 Phases=1 !yearly=res_kw_6140_pu

New Load.load_p1ulv2381_1 conn=wye bus1=p1ulv2381.1 kV=0.12 Vminpu=0.8 Vmaxpu=1.2 model=1 kW=6.702384034103662 kvar=1.5309301988324002 Phases=1 !yearly=res_kw_9612_pu

New Load.load_p1ulv2381_2 conn=wye bus1=p1ulv2381.2 kV=0.12 Vminpu=0.8 Vmaxpu=1.2 model=1 kW=6.702384034103662 kvar=1.5309301988324002 Phases=1 !yearly=res_kw_9612_pu

New Load.load_p1ulv2382 conn=wye bus1=p1ulv2382.1.2.3 kV=0.48 Vminpu=0.8 Vmaxpu=1.2 model=1 kW=41.79629857958706 kvar=10.613081766909598 Phases=3 !yearly=com_kw_35603_pu

New Load.load_p1ulv2383 conn=wye bus1=p1ulv2383.1.2.3 kV=0.48 Vminpu=0.8 Vmaxpu=1.2 model=1 kW=31.87602339897625 kvar=7.195728596156308 Phases=3 !yearly=com_kw_16753_pu

New Load.load_p1ulv2384_1 conn=wye bus1=p1ulv2384.1 kV=0.12 Vminpu=0.8 Vmaxpu=1.2 model=1 kW=5.569433532353901 kvar=0.07828940019258053 Phases=1 !yearly=res_kw_8031_pu

New Load.load_p1ulv2384_2 conn=wye bus1=p1ulv2384.2 kV=0.12 Vminpu=0.8 Vmaxpu=1.2 model=1 kW=5.569433532353901 kvar=0.07828940019258053 Phases=1 !yearly=res_kw_8031_pu

New Load.load_p1ulv2385_1 conn=wye bus1=p1ulv2384.1 kV=0.12 Vminpu=0.8 Vmaxpu=1.2 model=1 kW=1.5788343693478561 kvar=1.0852895205351165 Phases=1 !yearly=res_kw_2483_pu

New Load.load_p1ulv2385_2 conn=wye bus1=p1ulv2384.2 kV=0.12 Vminpu=0.8 Vmaxpu=1.2 model=1 kW=1.5788343693478561 kvar=1.0852895205351165 Phases=1 !yearly=res_kw_2483_pu

New Load.load_p1ulv2386_1 conn=wye bus1=p1ulv2386.1 kV=0.12 Vminpu=0.8 Vmaxpu=1.2 model=1 kW=2.018594272262985 kvar=0.7541379161264227 Phases=1 !yearly=res_kw_8869_pu

New Load.load_p1ulv2386_2 conn=wye bus1=p1ulv2386.2 kV=0.12 Vminpu=0.8 Vmaxpu=1.2 model=1 kW=2.018594272262985 kvar=0.7541379161264227 Phases=1 !yearly=res_kw_8869_pu

New Load.load_p1ulv2387_1 conn=wye bus1=p1ulv2386.1 kV=0.12 Vminpu=0.8 Vmaxpu=1.2 model=1 kW=1.195601026095605 kvar=0.4379463760124337 Phases=1 !yearly=res_kw_3968_pu

New Load.load_p1ulv2387_2 conn=wye bus1=p1ulv2386.2 kV=0.12 Vminpu=0.8 Vmaxpu=1.2 model=1 kW=1.195601026095605 kvar=0.4379463760124337 Phases=1 !yearly=res_kw_3968_pu

New Load.load_p1ulv2388_1 conn=wye bus1=p1ulv2388.1 kV=0.12 Vminpu=0.8 Vmaxpu=1.2 model=1 kW=2.065070543731389 kvar=0.9447553286189829 Phases=1 !yearly=res_kw_12726_pu

New Load.load_p1ulv2388_2 conn=wye bus1=p1ulv2388.2 kV=0.12 Vminpu=0.8 Vmaxpu=1.2 model=1 kW=2.065070543731389 kvar=0.9447553286189829 Phases=1 !yearly=res_kw_12726_pu

New Load.load_p1ulv2389_1 conn=wye bus1=p1ulv2389.1 kV=0.12 Vminpu=0.8 Vmaxpu=1.2 model=1 kW=1.9325431301186424 kvar=0.6134711830499072 Phases=1 !yearly=res_kw_6298_pu

New Load.load_p1ulv2389_2 conn=wye bus1=p1ulv2389.2 kV=0.12 Vminpu=0.8 Vmaxpu=1.2 model=1 kW=1.9325431301186424 kvar=0.6134711830499072 Phases=1 !yearly=res_kw_6298_pu

New Load.load_p1ulv2390_1 conn=wye bus1=p1ulv2390.1 kV=0.12 Vminpu=0.8 Vmaxpu=1.2 model=1 kW=1.919115741074501 kvar=0.2850908988242494 Phases=1 !yearly=res_kw_10222_pu

New Load.load_p1ulv2390_2 conn=wye bus1=p1ulv2390.2 kV=0.12 Vminpu=0.8 Vmaxpu=1.2 model=1 kW=1.919115741074501 kvar=0.2850908988242494 Phases=1 !yearly=res_kw_10222_pu

New Load.load_p1ulv2391_1 conn=wye bus1=p1ulv2391.1 kV=0.12 Vminpu=0.8 Vmaxpu=1.2 model=1 kW=1.5424601784243566 kvar=0.31457775613808403 Phases=1 !yearly=res_kw_7086_pu

New Load.load_p1ulv2391_2 conn=wye bus1=p1ulv2391.2 kV=0.12 Vminpu=0.8 Vmaxpu=1.2 model=1 kW=1.5424601784243566 kvar=0.31457775613808403 Phases=1 !yearly=res_kw_7086_pu

New Load.load_p1ulv2392_1 conn=wye bus1=p1ulv2391.1 kV=0.12 Vminpu=0.8 Vmaxpu=1.2 model=1 kW=4.096881510960829 kvar=0.27065521982295004 Phases=1 !yearly=res_kw_4450_pu

New Load.load_p1ulv2392_2 conn=wye bus1=p1ulv2391.2 kV=0.12 Vminpu=0.8 Vmaxpu=1.2 model=1 kW=4.096881510960829 kvar=0.27065521982295004 Phases=1 !yearly=res_kw_4450_pu

New Load.load_p1ulv2393_1 conn=wye bus1=p1ulv2393.1 kV=0.12 Vminpu=0.8 Vmaxpu=1.2 model=1 kW=2.661093206685493 kvar=0.9884186563142763 Phases=1 !yearly=res_kw_5685_pu

New Load.load_p1ulv2393_2 conn=wye bus1=p1ulv2393.2 kV=0.12 Vminpu=0.8 Vmaxpu=1.2 model=1 kW=2.661093206685493 kvar=0.9884186563142763 Phases=1 !yearly=res_kw_5685_pu

New Load.load_p1ulv2394_1 conn=wye bus1=p1ulv2394.1 kV=0.12 Vminpu=0.8 Vmaxpu=1.2 model=1 kW=3.634023352191214 kvar=1.2934174607236286 Phases=1 !yearly=res_kw_9711_pu

New Load.load_p1ulv2394_2 conn=wye bus1=p1ulv2394.2 kV=0.12 Vminpu=0.8 Vmaxpu=1.2 model=1 kW=3.634023352191214 kvar=1.2934174607236286 Phases=1 !yearly=res_kw_9711_pu

New Load.load_p1ulv2395_1 conn=wye bus1=p1ulv2395.1 kV=0.12 Vminpu=0.8 Vmaxpu=1.2 model=1 kW=1.068019721134604 kvar=0.6557810895906191 Phases=1 !yearly=res_kw_12867_pu

New Load.load_p1ulv2395_2 conn=wye bus1=p1ulv2395.2 kV=0.12 Vminpu=0.8 Vmaxpu=1.2 model=1 kW=1.068019721134604 kvar=0.6557810895906191 Phases=1 !yearly=res_kw_12867_pu

New Load.load_p1ulv2396_1 conn=wye bus1=p1ulv2396.1 kV=0.12 Vminpu=0.8 Vmaxpu=1.2 model=1 kW=4.060834559711965 kvar=0.4528637167980347 Phases=1 !yearly=res_kw_2131_pu

New Load.load_p1ulv2396_2 conn=wye bus1=p1ulv2396.2 kV=0.12 Vminpu=0.8 Vmaxpu=1.2 model=1 kW=4.060834559711965 kvar=0.4528637167980347 Phases=1 !yearly=res_kw_2131_pu

New Load.load_p1ulv2397_1 conn=wye bus1=p1ulv2397.1 kV=0.12 Vminpu=0.8 Vmaxpu=1.2 model=1 kW=2.2142575595505583 kvar=0.8511261488468437 Phases=1 !yearly=res_kw_6915_pu

New Load.load_p1ulv2397_2 conn=wye bus1=p1ulv2397.2 kV=0.12 Vminpu=0.8 Vmaxpu=1.2 model=1 kW=2.2142575595505583 kvar=0.8511261488468437 Phases=1 !yearly=res_kw_6915_pu

New Load.load_p1ulv2398_1 conn=wye bus1=p1ulv2398.1 kV=0.12 Vminpu=0.8 Vmaxpu=1.2 model=1 kW=1.1104349785731977 kvar=0.4157578117731551 Phases=1 !yearly=res_kw_2814_pu

New Load.load_p1ulv2398_2 conn=wye bus1=p1ulv2398.2 kV=0.12 Vminpu=0.8 Vmaxpu=1.2 model=1 kW=1.1104349785731977 kvar=0.4157578117731551 Phases=1 !yearly=res_kw_2814_pu

New Load.load_p1ulv2399_1 conn=wye bus1=p1ulv2399.1 kV=0.12 Vminpu=0.8 Vmaxpu=1.2 model=1 kW=2.499986264936982 kvar=0.21408942952428356 Phases=1 !yearly=res_kw_11990_pu

New Load.load_p1ulv2399_2 conn=wye bus1=p1ulv2399.2 kV=0.12 Vminpu=0.8 Vmaxpu=1.2 model=1 kW=2.499986264936982 kvar=0.21408942952428356 Phases=1 !yearly=res_kw_11990_pu

New Load.load_p1ulv2400_1 conn=wye bus1=p1ulv2400.1 kV=0.12 Vminpu=0.8 Vmaxpu=1.2 model=1 kW=1.8744605841296944 kvar=0.5892496700768608 Phases=1 !yearly=res_kw_4148_pu

New Load.load_p1ulv2400_2 conn=wye bus1=p1ulv2400.2 kV=0.12 Vminpu=0.8 Vmaxpu=1.2 model=1 kW=1.8744605841296944 kvar=0.5892496700768608 Phases=1 !yearly=res_kw_4148_pu

New Load.load_p1ulv2401_1 conn=wye bus1=p1ulv2401.1 kV=0.12 Vminpu=0.8 Vmaxpu=1.2 model=1 kW=5.678900054512627 kvar=0.2757046368675722 Phases=1 !yearly=res_kw_4488_pu

New Load.load_p1ulv2401_2 conn=wye bus1=p1ulv2401.2 kV=0.12 Vminpu=0.8 Vmaxpu=1.2 model=1 kW=5.678900054512627 kvar=0.2757046368675722 Phases=1 !yearly=res_kw_4488_pu

New Load.load_p1ulv2402_1 conn=wye bus1=p1ulv2402.1 kV=0.12 Vminpu=0.8 Vmaxpu=1.2 model=1 kW=4.083951745833768 kvar=0.9853982282300497 Phases=1 !yearly=res_kw_1361_pu

New Load.load_p1ulv2402_2 conn=wye bus1=p1ulv2402.2 kV=0.12 Vminpu=0.8 Vmaxpu=1.2 model=1 kW=4.083951745833768 kvar=0.9853982282300497 Phases=1 !yearly=res_kw_1361_pu

New Load.load_p1ulv2403_1 conn=wye bus1=p1ulv2403.1 kV=0.12 Vminpu=0.8 Vmaxpu=1.2 model=1 kW=3.6219955703671194 kvar=0.8101366516846996 Phases=1 !yearly=res_kw_7451_pu

New Load.load_p1ulv2403_2 conn=wye bus1=p1ulv2403.2 kV=0.12 Vminpu=0.8 Vmaxpu=1.2 model=1 kW=3.6219955703671194 kvar=0.8101366516846996 Phases=1 !yearly=res_kw_7451_pu

New Load.load_p1ulv2404_1 conn=wye bus1=p1ulv2404.1 kV=0.12 Vminpu=0.8 Vmaxpu=1.2 model=1 kW=0.4616254864593152 kvar=0.17224043852727797 Phases=1 !yearly=res_kw_3726_pu

New Load.load_p1ulv2404_2 conn=wye bus1=p1ulv2404.2 kV=0.12 Vminpu=0.8 Vmaxpu=1.2 model=1 kW=0.4616254864593152 kvar=0.17224043852727797 Phases=1 !yearly=res_kw_3726_pu

New Load.load_p1ulv2405_1 conn=wye bus1=p1ulv2405.1 kV=0.12 Vminpu=0.8 Vmaxpu=1.2 model=1 kW=8.912563053820602 kvar=0.5249399336059505 Phases=1 !yearly=res_kw_3580_pu

New Load.load_p1ulv2405_2 conn=wye bus1=p1ulv2405.2 kV=0.12 Vminpu=0.8 Vmaxpu=1.2 model=1 kW=8.912563053820602 kvar=0.5249399336059505 Phases=1 !yearly=res_kw_3580_pu

New Load.load_p1ulv2406_1 conn=wye bus1=p1ulv2406.1 kV=0.12 Vminpu=0.8 Vmaxpu=1.2 model=1 kW=2.2107525344638224 kvar=0.13645581049187483 Phases=1 !yearly=res_kw_12284_pu

New Load.load_p1ulv2406_2 conn=wye bus1=p1ulv2406.2 kV=0.12 Vminpu=0.8 Vmaxpu=1.2 model=1 kW=2.2107525344638224 kvar=0.13645581049187483 Phases=1 !yearly=res_kw_12284_pu

New Load.load_p1ulv2407_1 conn=wye bus1=p1ulv2406.1 kV=0.12 Vminpu=0.8 Vmaxpu=1.2 model=1 kW=2.0284833762961116 kvar=0.7404692443519614 Phases=1 !yearly=res_kw_11028_pu

New Load.load_p1ulv2407_2 conn=wye bus1=p1ulv2406.2 kV=0.12 Vminpu=0.8 Vmaxpu=1.2 model=1 kW=2.0284833762961116 kvar=0.7404692443519614 Phases=1 !yearly=res_kw_11028_pu

New Load.load_p1ulv2408_1 conn=wye bus1=p1ulv2408.1 kV=0.12 Vminpu=0.8 Vmaxpu=1.2 model=1 kW=1.6295328634326751 kvar=0.9988748196040309 Phases=1 !yearly=res_kw_5167_pu

New Load.load_p1ulv2408_2 conn=wye bus1=p1ulv2408.2 kV=0.12 Vminpu=0.8 Vmaxpu=1.2 model=1 kW=1.6295328634326751 kvar=0.9988748196040309 Phases=1 !yearly=res_kw_5167_pu

New Load.load_p1ulv2409_1 conn=wye bus1=p1ulv2409.1 kV=0.12 Vminpu=0.8 Vmaxpu=1.2 model=1 kW=2.0706694735223454 kvar=0.7147710529068211 Phases=1 !yearly=res_kw_8233_pu

New Load.load_p1ulv2409_2 conn=wye bus1=p1ulv2409.2 kV=0.12 Vminpu=0.8 Vmaxpu=1.2 model=1 kW=2.0706694735223454 kvar=0.7147710529068211 Phases=1 !yearly=res_kw_8233_pu

New Load.load_p1ulv2410_1 conn=wye bus1=p1ulv2410.1 kV=0.12 Vminpu=0.8 Vmaxpu=1.2 model=1 kW=6.120099357099368 kvar=0.40835558329673083 Phases=1 !yearly=res_kw_9190_pu

New Load.load_p1ulv2410_2 conn=wye bus1=p1ulv2410.2 kV=0.12 Vminpu=0.8 Vmaxpu=1.2 model=1 kW=6.120099357099368 kvar=0.40835558329673083 Phases=1 !yearly=res_kw_9190_pu

New Load.load_p1ulv2411_1 conn=wye bus1=p1ulv2411.1 kV=0.12 Vminpu=0.8 Vmaxpu=1.2 model=1 kW=2.3427299479624937 kvar=0.7727008462653047 Phases=1 !yearly=res_kw_15172_pu
