New Load.load_p1ulv2 conn=wye bus1=p1ulv2.1.2.3 kV=0.48 Vminpu=0.8 Vmaxpu=1.2 model=1 kW=107.50918965539748 kvar=22.31739191321554 Phases=3 !yearly=com_kw_41686_pu

New Load.load_p1ulv3_1 conn=wye bus1=p1ulv3.1 kV=0.12 Vminpu=0.8 Vmaxpu=1.2 model=1 kW=15.445747588806455 kvar=1.4913986720628467 Phases=1 !yearly=com_kw_22725_pu

New Load.load_p1ulv3_2 conn=wye bus1=p1ulv3.2 kV=0.12 Vminpu=0.8 Vmaxpu=1.2 model=1 kW=15.445747588806455 kvar=1.4913986720628467 Phases=1 !yearly=com_kw_22725_pu

New Load.load_p1ulv156 conn=wye bus1=p1ulv156.1.2.3 kV=0.48 Vminpu=0.8 Vmaxpu=1.2 model=1 kW=308.3157557963881 kvar=88.50583432026761 Phases=3 !yearly=com_kw_31403_pu

New Load.load_p1ulv157 conn=wye bus1=p1ulv157.1.2.3 kV=0.48 Vminpu=0.8 Vmaxpu=1.2 model=1 kW=72.54319218775908 kvar=24.81570671870738 Phases=3 !yearly=com_kw_8481_pu

New Load.load_p1ulv281_1 conn=wye bus1=p1ulv281.1 kV=0.12 Vminpu=0.8 Vmaxpu=1.2 model=1 kW=15.445747588806455 kvar=1.4913986720628467 Phases=1 !yearly=com_kw_22725_pu

New Load.load_p1ulv281_2 conn=wye bus1=p1ulv281.2 kV=0.12 Vminpu=0.8 Vmaxpu=1.2 model=1 kW=15.445747588806455 kvar=1.4913986720628467 Phases=1 !yearly=com_kw_22725_pu

New Load.load_p1ulv493 conn=wye bus1=p1ulv493.1.2.3 kV=0.48 Vminpu=0.8 Vmaxpu=1.2 model=1 kW=217.91222656845343 kvar=65.92309927443276 Phases=3 !yearly=com_kw_20812_pu

New Load.load_p1umv3 conn=wye bus1=p1umv3.1.2.3 kV=12.47 Vminpu=0.8 Vmaxpu=1.2 model=1 kW=869.1447254098889 kvar=255.14569100313204 Phases=3 !yearly=com_kw_39427_pu

New Load.load_p1umv5 conn=wye bus1=p1umv5.1.2.3 kV=12.47 Vminpu=0.8 Vmaxpu=1.2 model=1 kW=1035.677407317062 kvar=168.53268636820818 Phases=3 !yearly=com_kw_29594_pu

New Load.load_p1ulv530 conn=wye bus1=p1ulv530.1.2.3 kV=0.48 Vminpu=0.8 Vmaxpu=1.2 model=1 kW=52.390119056656594 kvar=18.138985272605257 Phases=3 !yearly=com_kw_35612_pu

New Load.load_p1ulv579 conn=wye bus1=p1ulv579.1.2.3 kV=0.48 Vminpu=0.8 Vmaxpu=1.2 model=1 kW=240.16590368103053 kvar=74.04349868701617 Phases=3 !yearly=com_kw_22519_pu

New Load.load_p1umv9 conn=wye bus1=p1umv9.1.2.3 kV=12.47 Vminpu=0.8 Vmaxpu=1.2 model=1 kW=794.8318089203441 kvar=234.1517484513079 Phases=3 !yearly=com_kw_2616_pu

New Load.load_p1ulv646 conn=wye bus1=p1ulv646.1.2.3 kV=0.48 Vminpu=0.8 Vmaxpu=1.2 model=1 kW=88.82490127787892 kvar=26.79645423823519 Phases=3 !yearly=com_kw_17383_pu

New Load.load_p1ulv647 conn=wye bus1=p1ulv647.1.2.3 kV=0.48 Vminpu=0.8 Vmaxpu=1.2 model=1 kW=45.620965036334034 kvar=16.198762051697834 Phases=3 !yearly=com_kw_41498_pu

New Load.load_p1ulv648 conn=wye bus1=p1ulv647.1.2.3 kV=0.48 Vminpu=0.8 Vmaxpu=1.2 model=1 kW=45.620965036334034 kvar=16.198762051697834 Phases=3 !yearly=com_kw_41498_pu

New Load.load_p1ulv649_1 conn=wye bus1=p1ulv649.1 kV=0.12 Vminpu=0.8 Vmaxpu=1.2 model=1 kW=15.445747588806455 kvar=1.4913986720628467 Phases=1 !yearly=com_kw_22725_pu

New Load.load_p1ulv649_2 conn=wye bus1=p1ulv649.2 kV=0.12 Vminpu=0.8 Vmaxpu=1.2 model=1 kW=15.445747588806455 kvar=1.4913986720628467 Phases=1 !yearly=com_kw_22725_pu

New Load.load_p1ulv1841 conn=wye bus1=p1ulv579.1.2.3 kV=0.48 Vminpu=0.8 Vmaxpu=1.2 model=1 kW=33.16015736466635 kvar=12.310963315509047 Phases=3 !yearly=com_kw_8560_pu

New Load.load_p1ulv1845 conn=wye bus1=p1ulv1845.1.2.3 kV=0.48 Vminpu=0.8 Vmaxpu=1.2 model=1 kW=118.00856317361081 kvar=38.93940732097984 Phases=3 !yearly=com_kw_29280_pu

New Load.load_p1umv10 conn=wye bus1=p1umv10.1.2.3 kV=12.47 Vminpu=0.8 Vmaxpu=1.2 model=1 kW=2098.874584949457 kvar=304.86106765819767 Phases=3 !yearly=com_kw_35518_pu

New Load.load_p1ulv1893 conn=wye bus1=p1ulv1893.1.2.3 kV=0.48 Vminpu=0.8 Vmaxpu=1.2 model=1 kW=45.620965036334034 kvar=16.198762051697834 Phases=3 !yearly=com_kw_41498_pu

New Load.load_p1ulv1901_1 conn=wye bus1=p1ulv1901.1 kV=0.12 Vminpu=0.8 Vmaxpu=1.2 model=1 kW=5.275386421514705 kvar=1.3481146038111556 Phases=1 !yearly=com_kw_2753_pu

New Load.load_p1ulv1901_2 conn=wye bus1=p1ulv1901.2 kV=0.12 Vminpu=0.8 Vmaxpu=1.2 model=1 kW=5.275386421514705 kvar=1.3481146038111556 Phases=1 !yearly=com_kw_2753_pu

New Load.load_p1ulv1912 conn=wye bus1=p1ulv1912.1.2.3 kV=0.48 Vminpu=0.8 Vmaxpu=1.2 model=1 kW=355.0320827559418 kvar=106.49349006416817 Phases=3 !yearly=com_kw_39297_pu

New Load.load_p1ulv1969_1 conn=wye bus1=p1ulv1969.1 kV=0.12 Vminpu=0.8 Vmaxpu=1.2 model=1 kW=4.890023893526049 kvar=1.238282654841143 Phases=1 !yearly=com_kw_34423_pu

New Load.load_p1ulv1969_2 conn=wye bus1=p1ulv1969.2 kV=0.12 Vminpu=0.8 Vmaxpu=1.2 model=1 kW=4.890023893526049 kvar=1.238282654841143 Phases=1 !yearly=com_kw_34423_pu

