New Line.l(r:p1uhs3_69-p1uts0_69) Units=km Length=2.9322 bus1=p1uhs3_69-p1uts0_69xx.1.2.3 bus2=p1uhs3_69-p1uts0_69x.1.2.3 switch=n enabled=y phases=3 Linecode=3P_UG_AL_1000mcm_3

New Line.l(r:p1uhs0_69-p1uhs2_69) Units=km Length=2.44097 bus1=p1uhs0_69-p1uhs2_69xx.1.2.3 bus2=p1uhs0_69-p1uhs2_69x.1.2.3 switch=n enabled=y phases=3 Linecode=3P_UG_AL_1000mcm_3

New Line.l(r:p1uhs1_69-p1uts0_69) Units=km Length=1.8590800000000003 bus1=p1uhs1_69-p1uts0_69xx.1.2.3 bus2=p1uhs1_69-p1uts0_69x.1.2.3 switch=n enabled=y phases=3 Linecode=3P_UG_AL_1000mcm_3

New Line.l(r:p1uhs2_69-p1uts0_69) Units=km Length=1.54611 bus1=p1uhs2_69-p1uts0_69xx.1.2.3 bus2=p1uhs2_69-p1uts0_69x.1.2.3 switch=n enabled=y phases=3 Linecode=3P_UG_AL_1000mcm_3

New Line.breaker(r:p1uts0_69-st_mat)p1u_11873 Units=km Length=0.001 bus1=st_mat.1.2.3 bus2=p1uts0_69-st_matxx.1.2.3 switch=y enabled=y phases=3 Linecode=breaker_3

New Line.breaker(r:p1uts0_69-st_mat)p1u_11874 Units=km Length=0.001 bus1=p1uts0_69-st_matx.1.2.3 bus2=p1uts0_69.1.2.3 switch=y enabled=y phases=3 Linecode=breaker_3_1

New Line.breaker(r:p1uhs3_69-p1uts0_69)p1u_11883 Units=km Length=0.001 bus1=p1uts0_69.1.2.3 bus2=p1uhs3_69-p1uts0_69xx.1.2.3 switch=y enabled=y phases=3 Linecode=breaker_3_2

New Line.breaker(r:p1uhs3_69-p1uts0_69)p1u_11884 Units=km Length=0.001 bus1=p1uhs3_69-p1uts0_69x.1.2.3 bus2=p1uhs3_69.1.2.3 switch=y enabled=y phases=3 Linecode=breaker_3_3

New Line.breaker(r:p1uhs0_69-p1uhs2_69)p1u_11885 Units=km Length=0.001 bus1=p1uhs2_69.1.2.3 bus2=p1uhs0_69-p1uhs2_69xx.1.2.3 switch=y enabled=y phases=3 Linecode=breaker_3

New Line.breaker(r:p1uhs0_69-p1uhs2_69)p1u_11886 Units=km Length=0.001 bus1=p1uhs0_69-p1uhs2_69x.1.2.3 bus2=p1uhs0_69.1.2.3 switch=y enabled=y phases=3 Linecode=breaker_3_4

New Line.breaker(r:p1uhs1_69-p1uts0_69)p1u_11887 Units=km Length=0.001 bus1=p1uts0_69.1.2.3 bus2=p1uhs1_69-p1uts0_69xx.1.2.3 switch=y enabled=y phases=3 Linecode=breaker_3

New Line.breaker(r:p1uhs1_69-p1uts0_69)p1u_11888 Units=km Length=0.001 bus1=p1uhs1_69-p1uts0_69x.1.2.3 bus2=p1uhs1_69.1.2.3 switch=y enabled=y phases=3 Linecode=breaker_3

New Line.breaker(r:p1uhs2_69-p1uts0_69)p1u_11889 Units=km Length=0.001 bus1=p1uts0_69.1.2.3 bus2=p1uhs2_69-p1uts0_69xx.1.2.3 switch=y enabled=y phases=3 Linecode=breaker_3

New Line.breaker(r:p1uhs2_69-p1uts0_69)p1u_11890 Units=km Length=0.001 bus1=p1uhs2_69-p1uts0_69x.1.2.3 bus2=p1uhs2_69.1.2.3 switch=y enabled=y phases=3 Linecode=breaker_3

