New Line.l(r:p1udt560lv-p1ulv2784) Units=km Length=0.00686053 bus1=p1udt560lv.1.2 bus2=p1ulv2784.1.2 switch=n enabled=y phases=2 Linecode=1P_OH_AL_2/0_Rucina_2

New Line.l(r:p1udm2306-p1ulv2481) Units=km Length=0.00671405 bus1=p1udm2306.1.2 bus2=p1ulv2481.1.2 switch=n enabled=y phases=2 Linecode=1P_OH_AL_2/0_Rucina_2

New Line.l(r:p1udm2307-p1ulv2482) Units=km Length=0.00737279 bus1=p1udm2307.1.2 bus2=p1ulv2482.1.2 switch=n enabled=y phases=2 Linecode=1P_OH_AL_2/0_Rucina_2

New Line.l(r:p1udm2306-p1udm2307) Units=km Length=0.0245002 bus1=p1udm2306.1.2 bus2=p1udm2307.1.2 switch=n enabled=y phases=2 Linecode=1P_OH_AL_2/0_Rucina_2

New Line.l(r:p1udm2310-p1ulv2496) Units=km Length=0.00832073 bus1=p1udm2310.1.2 bus2=p1ulv2496.1.2 switch=n enabled=y phases=2 Linecode=1P_OH_AL_2/0_Rucina_2

New Line.l(r:p1udm2306-p1udm2310) Units=km Length=0.0330401 bus1=p1udm2306.1.2 bus2=p1udm2310.1.2 switch=n enabled=y phases=2 Linecode=1P_OH_AL_4/0_Zuzara_2

New Line.l(r:p1udm2306-p1udt560lv) Units=km Length=0.0135305 bus1=p1udt560lv.1.2 bus2=p1udm2306.1.2 switch=n enabled=y phases=2 Linecode=1P_OH_AL_2/0_Rucina_2

New Line.l(r:p1udm2308-p1ulv2483) Units=km Length=0.00719836 bus1=p1udm2308.1.2 bus2=p1ulv2483.1.2 switch=n enabled=y phases=2 Linecode=1P_OH_AL_2/0_Rucina_2

New Line.l(r:p1udm2309-p1ulv2484) Units=km Length=0.008246330000000001 bus1=p1udm2309.1.2 bus2=p1ulv2484.1.2 switch=n enabled=y phases=2 Linecode=1P_OH_AL_2/0_Rucina_2

New Line.l(r:p1udm2308-p1udm2309) Units=km Length=0.0135305 bus1=p1udm2308.1.2 bus2=p1udm2309.1.2 switch=n enabled=y phases=2 Linecode=1P_OH_AL_2/0_Rucina_2

New Line.l(r:p1udm2308-p1udt560lv) Units=km Length=0.0135305 bus1=p1udt560lv.1.2 bus2=p1udm2308.1.2 switch=n enabled=y phases=2 Linecode=1P_OH_AL_2/0_Rucina_2

New Line.l(r:p1udm2313-p1ulv2489) Units=km Length=0.00858656 bus1=p1udm2313.1.2 bus2=p1ulv2489.1.2 switch=n enabled=y phases=2 Linecode=1P_UG_AL_1/0_Brenau_2

New Line.l(r:p1udm2312-p1ulv2485) Units=km Length=0.00935142 bus1=p1udm2312.1.2 bus2=p1ulv2485.1.2 switch=n enabled=y phases=2 Linecode=1P_UG_AL_1/0_Brenau_2

New Line.l(r:p1udm2312-p1udm2313) Units=km Length=0.0568394 bus1=p1udm2313.1.2 bus2=p1udm2312.1.2 switch=n enabled=y phases=2 Linecode=1P_UG_AL_1/0_Brenau_2

New Line.l(r:p1udm2314-p1ulv2490) Units=km Length=0.00818287 bus1=p1udm2314.1.2 bus2=p1ulv2490.1.2 switch=n enabled=y phases=2 Linecode=1P_UG_AL_1/0_Brenau_2

New Line.l(r:p1udm2313-p1udm2314) Units=km Length=0.0380217 bus1=p1udm2313.1.2 bus2=p1udm2314.1.2 switch=n enabled=y phases=2 Linecode=1P_UG_AL_1/0_Brenau_2

New Line.l(r:p1udm2313-p1udt561lv) Units=km Length=0.0191046 bus1=p1udt561lv.1.2 bus2=p1udm2313.1.2 switch=n enabled=y phases=2 Linecode=1P_UG_AL_4/0_Sweetbriar_2

New Line.l(r:p1udt562lv-p1ulv2486) Units=km Length=0.00803409 bus1=p1udt562lv.1.2 bus2=p1ulv2486.1.2 switch=n enabled=y phases=2 Linecode=1P_OH_AL_2/0_Rucina_2

New Line.l(r:p1udt562lv-p1ulv2488) Units=km Length=0.00596312 bus1=p1udt562lv.1.2 bus2=p1ulv2488.1.2 switch=n enabled=y phases=2 Linecode=1P_OH_AL_2/0_Rucina_2

New Line.l(r:p1udt563lv-p1ulv2493) Units=km Length=0.00681918 bus1=p1udt563lv.1.2 bus2=p1ulv2493.1.2 switch=n enabled=y phases=2 Linecode=1P_OH_AL_2/0_Rucina_2

New Line.l(r:p1udt563lv-p1ulv2494) Units=km Length=0.00768888 bus1=p1udt563lv.1.2 bus2=p1ulv2494.1.2 switch=n enabled=y phases=2 Linecode=1P_OH_AL_2/0_Rucina_2

New Line.l(r:p1udm2318-p1ulv2492) Units=km Length=0.00624126 bus1=p1udm2318.1.2 bus2=p1ulv2492.1.2 switch=n enabled=y phases=2 Linecode=1P_OH_AL_2/0_Rucina_2

New Line.l(r:p1udm2317-p1ulv2491) Units=km Length=0.0275625 bus1=p1udm2317.1.2 bus2=p1ulv2491.1.2 switch=n enabled=y phases=2 Linecode=1P_UG_AL_1/0_Brenau_2

New Line.l(r:p1udm2317-p1udm2318) Units=km Length=0.0586939 bus1=p1udm2318.1.2 bus2=p1udm2317.1.2 switch=n enabled=y phases=2 Linecode=1P_OH_AL_4/0_Zuzara_2

New Line.l(r:p1udm2318-p1udt563lv) Units=km Length=0.0142144 bus1=p1udt563lv.1.2 bus2=p1udm2318.1.2 switch=n enabled=y phases=2 Linecode=1P_OH_AL_2/0_Rucina_2

New Line.l(r:p1udt564lv-p1ulv2495) Units=km Length=0.006600370000000001 bus1=p1udt564lv.1.2 bus2=p1ulv2495.1.2 switch=n enabled=y phases=2 Linecode=1P_OH_AL_2/0_Rucina_2

New Line.l(r:p1udt565lv-p1ulv7687) Units=km Length=0.00707924 bus1=p1udt565lv.1.2 bus2=p1ulv7687.1.2 switch=n enabled=y phases=2 Linecode=1P_OH_AL_2/0_Rucina_2

New Line.l(r:p1udm2322-p1ulv2497) Units=km Length=0.0071765 bus1=p1udm2322.1.2 bus2=p1ulv2497.1.2 switch=n enabled=y phases=2 Linecode=1P_OH_AL_2/0_Rucina_2

New Line.l(r:p1udm2322-p1udt565lv) Units=km Length=0.0272288 bus1=p1udt565lv.1.2 bus2=p1udm2322.1.2 switch=n enabled=y phases=2 Linecode=1P_OH_AL_4/0_Zuzara_2

New Line.l(r:p1udm2323-p1ulv2779) Units=km Length=0.00840707 bus1=p1udm2323.1.2 bus2=p1ulv2779.1.2 switch=n enabled=y phases=2 Linecode=1P_OH_AL_2/0_Rucina_2

New Line.l(r:p1udm2323-p1udt565lv) Units=km Length=0.0343188 bus1=p1udt565lv.1.2 bus2=p1udm2323.1.2 switch=n enabled=y phases=2 Linecode=1P_OH_AL_4/0_Zuzara_2

New Line.l(r:p1udt566lv-p1ulv2498) Units=km Length=0.0204318 bus1=p1udt566lv.1.2 bus2=p1ulv2498.1.2 switch=n enabled=y phases=2 Linecode=1P_UG_AL_1/0_Brenau_2

New Line.l(r:p1udt566lv-p1ulv2901) Units=km Length=0.0131273 bus1=p1udt566lv.1.2 bus2=p1ulv2901.1.2 switch=n enabled=y phases=2 Linecode=1P_UG_AL_1/0_Brenau_2

New Line.l(r:p1udm2326-p1ulv2501) Units=km Length=0.0122569 bus1=p1udm2326.1.2 bus2=p1ulv2501.1.2 switch=n enabled=y phases=2 Linecode=1P_UG_AL_1/0_Brenau_2

New Line.l(r:p1udm2326-p1ulv2902) Units=km Length=0.0135819 bus1=p1udm2326.1.2 bus2=p1ulv2902.1.2 switch=n enabled=y phases=2 Linecode=1P_UG_AL_1/0_Brenau_2

New Line.l(r:p1udm2327-p1ulv2502) Units=km Length=0.0120271 bus1=p1udm2327.1.2 bus2=p1ulv2502.1.2 switch=n enabled=y phases=2 Linecode=1P_UG_AL_4/0_Sweetbriar_2

New Line.l(r:p1udm2326-p1udm2327) Units=km Length=0.00987668 bus1=p1udm2326.1.2 bus2=p1udm2327.1.2 switch=n enabled=y phases=2 Linecode=1P_UG_AL_4/0_Sweetbriar_2

New Line.l(r:p1udm2326-p1udt566lv) Units=km Length=0.0098685 bus1=p1udt566lv.1.2 bus2=p1udm2326.1.2 switch=n enabled=y phases=2 Linecode=1P_UG_AL_4/0_Sweetbriar_2

New Line.l(r:p1udm2328-p1ulv2899) Units=km Length=0.0128823 bus1=p1udm2328.1.2 bus2=p1ulv2899.1.2 switch=n enabled=y phases=2 Linecode=1P_UG_AL_1/0_Brenau_2

New Line.l(r:p1udm2331-p1ulv7714) Units=km Length=0.0128161 bus1=p1udm2331.1.2 bus2=p1ulv7714.1.2 switch=n enabled=y phases=2 Linecode=1P_UG_AL_1/0_Brenau_2

New Line.l(r:p1udm2328-p1udm2331) Units=km Length=0.00988243 bus1=p1udm2328.1.2 bus2=p1udm2331.1.2 switch=n enabled=y phases=2 Linecode=1P_UG_AL_1/0_Brenau_2

New Line.l(r:p1udm2328-p1udt566lv) Units=km Length=0.0098685 bus1=p1udt566lv.1.2 bus2=p1udm2328.1.2 switch=n enabled=y phases=2 Linecode=1P_UG_AL_1/0_Brenau_2

New Line.l(r:p1udt567lv-p1ulv2499) Units=km Length=0.030451800000000005 bus1=p1udt567lv.1.2 bus2=p1ulv2499.1.2 switch=n enabled=y phases=2 Linecode=1P_UG_AL_1/0_Brenau_2

New Line.l(r:p1udt567lv-p1ulv2665) Units=km Length=0.014098800000000002 bus1=p1udt567lv.1.2 bus2=p1ulv2665.1.2 switch=n enabled=y phases=2 Linecode=1P_UG_AL_1/0_Brenau_2

New Line.l(r:p1udm2333-p1ulv2500) Units=km Length=0.0079902 bus1=p1udm2333.1.2 bus2=p1ulv2500.1.2 switch=n enabled=y phases=2 Linecode=1P_UG_AL_1/0_Brenau_2

New Line.l(r:p1udm2333-p1ulv2669) Units=km Length=0.0141155 bus1=p1udm2333.1.2 bus2=p1ulv2669.1.2 switch=n enabled=y phases=2 Linecode=1P_UG_AL_1/0_Brenau_2

New Line.l(r:p1udm2337-p1ulv2670) Units=km Length=0.0121816 bus1=p1udm2337.1.2 bus2=p1ulv2670.1.2 switch=n enabled=y phases=2 Linecode=1P_UG_AL_1/0_Brenau_2

New Line.l(r:p1udm2337-p1ulv7712) Units=km Length=0.00740947 bus1=p1udm2337.1.2 bus2=p1ulv7712.1.2 switch=n enabled=y phases=2 Linecode=1P_UG_AL_1/0_Brenau_2

New Line.l(r:p1udm2333-p1udm2337) Units=km Length=0.00940096 bus1=p1udm2333.1.2 bus2=p1udm2337.1.2 switch=n enabled=y phases=2 Linecode=1P_UG_AL_1/0_Brenau_2

New Line.l(r:p1udm2333-p1udt567lv) Units=km Length=0.00940332 bus1=p1udt567lv.1.2 bus2=p1udm2333.1.2 switch=n enabled=y phases=2 Linecode=1P_UG_AL_4/0_Sweetbriar_2

New Line.l(r:p1udm2335-p1ulv2666) Units=km Length=0.0139746 bus1=p1udm2335.1.2 bus2=p1ulv2666.1.2 switch=n enabled=y phases=2 Linecode=1P_UG_AL_1/0_Brenau_2

New Line.l(r:p1udm2338-p1ulv2894) Units=km Length=0.0125494 bus1=p1udm2338.1.2 bus2=p1ulv2894.1.2 switch=n enabled=y phases=2 Linecode=1P_UG_AL_1/0_Brenau_2

New Line.l(r:p1udm2335-p1udm2338) Units=km Length=0.0378228 bus1=p1udm2335.1.2 bus2=p1udm2338.1.2 switch=n enabled=y phases=2 Linecode=1P_UG_AL_1/0_Brenau_2

New Line.l(r:p1udm2335-p1udt567lv) Units=km Length=0.00940332 bus1=p1udt567lv.1.2 bus2=p1udm2335.1.2 switch=n enabled=y phases=2 Linecode=1P_UG_AL_1/0_Brenau_2

New Line.l(r:p1udt568lv-p1ulv2506) Units=km Length=0.00872947 bus1=p1udt568lv.1.2 bus2=p1ulv2506.1.2 switch=n enabled=y phases=2 Linecode=1P_OH_AL_2/0_Rucina_2

New Line.l(r:p1udm2340-p1ulv2504) Units=km Length=0.00886833 bus1=p1udm2340.1.2 bus2=p1ulv2504.1.2 switch=n enabled=y phases=2 Linecode=1P_OH_AL_2/0_Rucina_2

New Line.l(r:p1udm2340-p1ulv2505) Units=km Length=0.00960525 bus1=p1udm2340.1.2 bus2=p1ulv2505.1.2 switch=n enabled=y phases=2 Linecode=1P_OH_AL_2/0_Rucina_2

New Line.l(r:p1udm2340-p1ulv2512) Units=km Length=0.00995322 bus1=p1udm2340.1.2 bus2=p1ulv2512.1.2 switch=n enabled=y phases=2 Linecode=1P_OH_AL_2/0_Rucina_2

New Line.l(r:p1udm2345-p1ulv2510) Units=km Length=0.00909299 bus1=p1udm2345.1.2 bus2=p1ulv2510.1.2 switch=n enabled=y phases=2 Linecode=1P_OH_AL_2/0_Rucina_2

New Line.l(r:p1udm2340-p1udm2345) Units=km Length=0.0199709 bus1=p1udm2340.1.2 bus2=p1udm2345.1.2 switch=n enabled=y phases=2 Linecode=1P_OH_AL_2/0_Rucina_2

New Line.l(r:p1udm2340-p1udt568lv) Units=km Length=0.0199585 bus1=p1udt568lv.1.2 bus2=p1udm2340.1.2 switch=n enabled=y phases=2 Linecode=1P_OH_AL_2/0_Rucina_2

New Line.l(r:p1udm2343-p1ulv2508) Units=km Length=0.00900349 bus1=p1udm2343.1.2 bus2=p1ulv2508.1.2 switch=n enabled=y phases=2 Linecode=1P_OH_AL_2/0_Rucina_2

New Line.l(r:p1udm2344-p1ulv2509) Units=km Length=0.0100818 bus1=p1udm2344.1.2 bus2=p1ulv2509.1.2 switch=n enabled=y phases=2 Linecode=1P_OH_AL_2/0_Rucina_2

New Line.l(r:p1udm2343-p1udm2344) Units=km Length=0.0147499 bus1=p1udm2343.1.2 bus2=p1udm2344.1.2 switch=n enabled=y phases=2 Linecode=1P_OH_AL_2/0_Rucina_2

New Line.l(r:p1udm2343-p1udt568lv) Units=km Length=0.0147622 bus1=p1udt568lv.1.2 bus2=p1udm2343.1.2 switch=n enabled=y phases=2 Linecode=1P_OH_AL_2/0_Rucina_2

New Line.l(r:p1udt569lv-p1ulv2514) Units=km Length=0.0118927 bus1=p1udt569lv.1.2 bus2=p1ulv2514.1.2 switch=n enabled=y phases=2 Linecode=1P_UG_AL_1/0_Brenau_2

New Line.l(r:p1udt569lv-p1ulv2520) Units=km Length=0.0121491 bus1=p1udt569lv.1.2 bus2=p1ulv2520.1.2 switch=n enabled=y phases=2 Linecode=1P_UG_AL_1/0_Brenau_2

New Line.l(r:p1udm2348-p1ulv2513) Units=km Length=0.0121514 bus1=p1udm2348.1.2 bus2=p1ulv2513.1.2 switch=n enabled=y phases=2 Linecode=1P_UG_AL_1/0_Brenau_2

New Line.l(r:p1udm2348-p1ulv2523) Units=km Length=0.012180200000000002 bus1=p1udm2348.1.2 bus2=p1ulv2523.1.2 switch=n enabled=y phases=2 Linecode=1P_UG_AL_1/0_Brenau_2

New Line.l(r:p1udm2347-p1ulv2511) Units=km Length=0.011829800000000001 bus1=p1udm2347.1.2 bus2=p1ulv2511.1.2 switch=n enabled=y phases=2 Linecode=1P_UG_AL_1/0_Brenau_2

New Line.l(r:p1udm2347-p1udm2348) Units=km Length=0.00963103 bus1=p1udm2348.1.2 bus2=p1udm2347.1.2 switch=n enabled=y phases=2 Linecode=1P_UG_AL_1/0_Brenau_2

New Line.l(r:p1udm2348-p1udt569lv) Units=km Length=0.00961712 bus1=p1udt569lv.1.2 bus2=p1udm2348.1.2 switch=n enabled=y phases=2 Linecode=1P_UG_AL_1/0_Brenau_2

New Line.l(r:p1udm2350-p1ulv2516) Units=km Length=0.011981800000000003 bus1=p1udm2350.1.2 bus2=p1ulv2516.1.2 switch=n enabled=y phases=2 Linecode=1P_UG_AL_1/0_Brenau_2

New Line.l(r:p1udm2350-p1ulv2519) Units=km Length=0.012480500000000002 bus1=p1udm2350.1.2 bus2=p1ulv2519.1.2 switch=n enabled=y phases=2 Linecode=1P_UG_AL_1/0_Brenau_2

New Line.l(r:p1udm2351-p1ulv2517) Units=km Length=0.0120929 bus1=p1udm2351.1.2 bus2=p1ulv2517.1.2 switch=n enabled=y phases=2 Linecode=1P_UG_AL_1/0_Brenau_2

New Line.l(r:p1udm2352-p1ulv2518) Units=km Length=0.00699709 bus1=p1udm2352.1.2 bus2=p1ulv2518.1.2 switch=n enabled=y phases=2 Linecode=1P_UG_AL_1/0_Brenau_2

New Line.l(r:p1udm2351-p1udm2352) Units=km Length=0.0286489 bus1=p1udm2351.1.2 bus2=p1udm2352.1.2 switch=n enabled=y phases=2 Linecode=1P_UG_AL_1/0_Brenau_2

New Line.l(r:p1udm2350-p1udm2351) Units=km Length=0.00963103 bus1=p1udm2350.1.2 bus2=p1udm2351.1.2 switch=n enabled=y phases=2 Linecode=1P_UG_AL_1/0_Brenau_2

New Line.l(r:p1udm2350-p1udt569lv) Units=km Length=0.00962281 bus1=p1udt569lv.1.2 bus2=p1udm2350.1.2 switch=n enabled=y phases=2 Linecode=1P_UG_AL_2/0_Converse_2

New Line.l(r:p1udt570lv-p1ulv2525) Units=km Length=0.0090722 bus1=p1udt570lv.1.2 bus2=p1ulv2525.1.2 switch=n enabled=y phases=2 Linecode=1P_OH_AL_2/0_Rucina_2

New Line.l(r:p1udt570lv-p1ulv2526) Units=km Length=0.00857744 bus1=p1udt570lv.1.2 bus2=p1ulv2526.1.2 switch=n enabled=y phases=2 Linecode=1P_OH_AL_2/0_Rucina_2

New Line.l(r:p1udm2356-p1ulv2522) Units=km Length=0.00963048 bus1=p1udm2356.1.2 bus2=p1ulv2522.1.2 switch=n enabled=y phases=2 Linecode=1P_OH_AL_2/0_Rucina_2

New Line.l(r:p1udm2356-p1udt570lv) Units=km Length=0.0175423 bus1=p1udt570lv.1.2 bus2=p1udm2356.1.2 switch=n enabled=y phases=2 Linecode=1P_OH_AL_2/0_Rucina_2

New Line.l(r:p1udm2357-p1ulv2524) Units=km Length=0.00850941 bus1=p1udm2357.1.2 bus2=p1ulv2524.1.2 switch=n enabled=y phases=2 Linecode=1P_OH_AL_2/0_Rucina_2

New Line.l(r:p1udm2360-p1ulv2528) Units=km Length=0.006792590000000001 bus1=p1udm2360.1.2 bus2=p1ulv2528.1.2 switch=n enabled=y phases=2 Linecode=1P_OH_AL_2/0_Rucina_2

New Line.l(r:p1udm2357-p1udm2360) Units=km Length=0.0175423 bus1=p1udm2357.1.2 bus2=p1udm2360.1.2 switch=n enabled=y phases=2 Linecode=1P_OH_AL_2/0_Rucina_2

New Line.l(r:p1udm2357-p1udt570lv) Units=km Length=0.0175423 bus1=p1udt570lv.1.2 bus2=p1udm2357.1.2 switch=n enabled=y phases=2 Linecode=1P_OH_AL_2/0_Rucina_2

New Line.l(r:p1udt571lv-p1ulv2695) Units=km Length=0.0123876 bus1=p1udt571lv.1.2 bus2=p1ulv2695.1.2 switch=n enabled=y phases=2 Linecode=1P_UG_AL_1/0_Brenau_2

New Line.l(r:p1udt571lv-p1ulv7707) Units=km Length=0.00718873 bus1=p1udt571lv.1.2 bus2=p1ulv7707.1.2 switch=n enabled=y phases=2 Linecode=1P_UG_AL_1/0_Brenau_2

New Line.l(r:p1udm2364-p1ulv2533) Units=km Length=0.00775405 bus1=p1udm2364.1.2 bus2=p1ulv2533.1.2 switch=n enabled=y phases=2 Linecode=1P_UG_AL_1/0_Brenau_2

New Line.l(r:p1udm2364-p1ulv2696) Units=km Length=0.0122559 bus1=p1udm2364.1.2 bus2=p1ulv2696.1.2 switch=n enabled=y phases=2 Linecode=1P_UG_AL_1/0_Brenau_2

New Line.l(r:p1udm2365-p1ulv2694) Units=km Length=0.011889900000000002 bus1=p1udm2365.1.2 bus2=p1ulv2694.1.2 switch=n enabled=y phases=2 Linecode=1P_UG_AL_1/0_Brenau_2

New Line.l(r:p1udm2365-p1ulv7709) Units=km Length=0.0068749 bus1=p1udm2365.1.2 bus2=p1ulv7709.1.2 switch=n enabled=y phases=2 Linecode=1P_UG_AL_1/0_Brenau_2

New Line.l(r:p1udm2364-p1udm2365) Units=km Length=0.00958748 bus1=p1udm2364.1.2 bus2=p1udm2365.1.2 switch=n enabled=y phases=2 Linecode=1P_UG_AL_1/0_Brenau_2

New Line.l(r:p1udm2364-p1udt571lv) Units=km Length=0.00958175 bus1=p1udt571lv.1.2 bus2=p1udm2364.1.2 switch=n enabled=y phases=2 Linecode=1P_UG_AL_1/0_Brenau_2

New Line.l(r:p1udm2368-p1ulv2697) Units=km Length=0.0117585 bus1=p1udm2368.1.2 bus2=p1ulv2697.1.2 switch=n enabled=y phases=2 Linecode=1P_UG_AL_1/0_Brenau_2

New Line.l(r:p1udm2368-p1ulv7704) Units=km Length=0.00753406 bus1=p1udm2368.1.2 bus2=p1ulv7704.1.2 switch=n enabled=y phases=2 Linecode=1P_UG_AL_1/0_Brenau_2

New Line.l(r:p1udm2363-p1ulv2531) Units=km Length=0.0127014 bus1=p1udm2363.1.2 bus2=p1ulv2531.1.2 switch=n enabled=y phases=2 Linecode=1P_UG_AL_1/0_Brenau_2

New Line.l(r:p1udm2362-p1ulv2530) Units=km Length=0.012477 bus1=p1udm2362.1.2 bus2=p1ulv2530.1.2 switch=n enabled=y phases=2 Linecode=1P_UG_AL_1/0_Brenau_2

New Line.l(r:p1udm2361-p1ulv2529) Units=km Length=0.012251300000000001 bus1=p1udm2361.1.2 bus2=p1ulv2529.1.2 switch=n enabled=y phases=2 Linecode=1P_UG_AL_1/0_Brenau_2

New Line.l(r:p1udm2361-p1udm2362) Units=km Length=0.00949413 bus1=p1udm2362.1.2 bus2=p1udm2361.1.2 switch=n enabled=y phases=2 Linecode=1P_UG_AL_1/0_Brenau_2

New Line.l(r:p1udm2362-p1udm2363) Units=km Length=0.0094802 bus1=p1udm2363.1.2 bus2=p1udm2362.1.2 switch=n enabled=y phases=2 Linecode=1P_UG_AL_1/0_Brenau_2

New Line.l(r:p1udm2363-p1udm2368) Units=km Length=0.0477474 bus1=p1udm2368.1.2 bus2=p1udm2363.1.2 switch=n enabled=y phases=2 Linecode=1P_UG_AL_4/0_Sweetbriar_2

New Line.l(r:p1udm2368-p1udt571lv) Units=km Length=0.00959568 bus1=p1udt571lv.1.2 bus2=p1udm2368.1.2 switch=n enabled=y phases=2 Linecode=1P_UG_AL_4/0_Sweetbriar_2

New Line.l(r:p1udm2372-p1ulv2534) Units=km Length=0.0114653 bus1=p1udm2372.1.2 bus2=p1ulv2534.1.2 switch=n enabled=y phases=2 Linecode=1P_OH_AL_2/0_Rucina_2

New Line.l(r:p1udm2372-p1udt572lv) Units=km Length=0.0477384 bus1=p1udt572lv.1.2 bus2=p1udm2372.1.2 switch=n enabled=y phases=2 Linecode=1P_OH_AL_4/0_Zuzara_2

New Line.l(r:p1udm2373-p1ulv2730) Units=km Length=0.012488 bus1=p1udm2373.1.2 bus2=p1ulv2730.1.2 switch=n enabled=y phases=2 Linecode=1P_UG_AL_1/0_Brenau_2

New Line.l(r:p1udm2373-p1udt572lv) Units=km Length=0.0285487 bus1=p1udt572lv.1.2 bus2=p1udm2373.1.2 switch=n enabled=y phases=2 Linecode=1P_UG_AL_1/0_Brenau_2

New Line.l(r:p1udm2374-p1ulv2535) Units=km Length=0.00815516 bus1=p1udm2374.1.2 bus2=p1ulv2535.1.2 switch=n enabled=y phases=2 Linecode=1P_OH_AL_2/0_Rucina_2

New Line.l(r:p1udm2374-p1udt573lv) Units=km Length=0.042144 bus1=p1udt573lv.1.2 bus2=p1udm2374.1.2 switch=n enabled=y phases=2 Linecode=1P_OH_AL_4/0_Zuzara_2

New Line.l(r:p1udm2375-p1ulv2536) Units=km Length=0.00659519 bus1=p1udm2375.1.2 bus2=p1ulv2536.1.2 switch=n enabled=y phases=2 Linecode=1P_UG_AL_1/0_Brenau_2

New Line.l(r:p1udm2377-p1ulv2761) Units=km Length=0.0114285 bus1=p1udm2377.1.2 bus2=p1ulv2761.1.2 switch=n enabled=y phases=2 Linecode=1P_UG_AL_1/0_Brenau_2

New Line.l(r:p1udm2375-p1udm2377) Units=km Length=0.00903374 bus1=p1udm2375.1.2 bus2=p1udm2377.1.2 switch=n enabled=y phases=2 Linecode=1P_UG_AL_1/0_Brenau_2

New Line.l(r:p1udm2375-p1udt573lv) Units=km Length=0.00902557 bus1=p1udt573lv.1.2 bus2=p1udm2375.1.2 switch=n enabled=y phases=2 Linecode=1P_UG_AL_4/0_Sweetbriar_2

New Line.l(r:p1udm2376-p1ulv2731) Units=km Length=0.011906000000000002 bus1=p1udm2376.1.2 bus2=p1ulv2731.1.2 switch=n enabled=y phases=2 Linecode=1P_UG_AL_1/0_Brenau_2

New Line.l(r:p1udm2376-p1udt573lv) Units=km Length=0.0191464 bus1=p1udt573lv.1.2 bus2=p1udm2376.1.2 switch=n enabled=y phases=2 Linecode=1P_UG_AL_1/0_Brenau_2

New Line.l(r:p1udt574lv-p1ulv2537) Units=km Length=0.0105855 bus1=p1udt574lv.1.2 bus2=p1ulv2537.1.2 switch=n enabled=y phases=2 Linecode=1P_OH_AL_2/0_Rucina_2

New Line.l(r:p1udm2379-p1ulv2538) Units=km Length=0.0120364 bus1=p1udm2379.1.2 bus2=p1ulv2538.1.2 switch=n enabled=y phases=2 Linecode=1P_UG_AL_1/0_Brenau_2

New Line.l(r:p1udm2379-p1udt575lv) Units=km Length=0.0294523 bus1=p1udt575lv.1.2 bus2=p1udm2379.1.2 switch=n enabled=y phases=2 Linecode=1P_UG_AL_1/0_Brenau_2

New Line.l(r:p1udm2380-p1ulv8024) Units=km Length=0.0109651 bus1=p1udm2380.1.2 bus2=p1ulv8024.1.2 switch=n enabled=y phases=2 Linecode=1P_UG_AL_1/0_Brenau_2

New Line.l(r:p1udm2380-p1udt575lv) Units=km Length=0.0200669 bus1=p1udt575lv.1.2 bus2=p1udm2380.1.2 switch=n enabled=y phases=2 Linecode=1P_UG_AL_1/0_Brenau_2

New Line.l(r:p1udt576lv-p1ulv2539) Units=km Length=0.0109746 bus1=p1udt576lv.1.2 bus2=p1ulv2539.1.2 switch=n enabled=y phases=2 Linecode=1P_UG_AL_1/0_Brenau_2

New Line.l(r:p1udt576lv-p1ulv2622) Units=km Length=0.00816765 bus1=p1udt576lv.1.2 bus2=p1ulv2622.1.2 switch=n enabled=y phases=2 Linecode=1P_UG_AL_1/0_Brenau_2

New Line.l(r:p1udm2382-p1ulv2540) Units=km Length=0.0112371 bus1=p1udm2382.1.2 bus2=p1ulv2540.1.2 switch=n enabled=y phases=2 Linecode=1P_UG_AL_1/0_Brenau_2

New Line.l(r:p1udm2382-p1ulv2624) Units=km Length=0.00836167 bus1=p1udm2382.1.2 bus2=p1ulv2624.1.2 switch=n enabled=y phases=2 Linecode=1P_UG_AL_1/0_Brenau_2

New Line.l(r:p1udm2391-p1ulv2625) Units=km Length=0.00833228 bus1=p1udm2391.1.2 bus2=p1ulv2625.1.2 switch=n enabled=y phases=2 Linecode=1P_UG_AL_1/0_Brenau_2

New Line.l(r:p1udm2392-p1ulv2626) Units=km Length=0.00836757 bus1=p1udm2392.1.2 bus2=p1ulv2626.1.2 switch=n enabled=y phases=2 Linecode=1P_UG_AL_1/0_Brenau_2

New Line.l(r:p1udm2383-p1ulv2542) Units=km Length=0.0106625 bus1=p1udm2383.1.2 bus2=p1ulv2542.1.2 switch=n enabled=y phases=2 Linecode=1P_UG_AL_1/0_Brenau_2

New Line.l(r:p1udm2383-p1udm2392) Units=km Length=0.0196544 bus1=p1udm2392.1.2 bus2=p1udm2383.1.2 switch=n enabled=y phases=2 Linecode=1P_UG_AL_1/0_Brenau_2

New Line.l(r:p1udm2391-p1udm2392) Units=km Length=0.00880116 bus1=p1udm2391.1.2 bus2=p1udm2392.1.2 switch=n enabled=y phases=2 Linecode=1P_UG_AL_1/0_Brenau_2

New Line.l(r:p1udm2382-p1udm2391) Units=km Length=0.00880932 bus1=p1udm2382.1.2 bus2=p1udm2391.1.2 switch=n enabled=y phases=2 Linecode=1P_UG_AL_1/0_Brenau_2

New Line.l(r:p1udm2382-p1udt576lv) Units=km Length=0.00880116 bus1=p1udt576lv.1.2 bus2=p1udm2382.1.2 switch=n enabled=y phases=2 Linecode=1P_UG_AL_2/0_Converse_2

New Line.l(r:p1udm2388-p1ulv2621) Units=km Length=0.00809628 bus1=p1udm2388.1.2 bus2=p1ulv2621.1.2 switch=n enabled=y phases=2 Linecode=1P_UG_AL_1/0_Brenau_2

New Line.l(r:p1udm2387-p1ulv2620) Units=km Length=0.00810275 bus1=p1udm2387.1.2 bus2=p1ulv2620.1.2 switch=n enabled=y phases=2 Linecode=1P_UG_AL_1/0_Brenau_2

New Line.l(r:p1udm2385-p1ulv2618) Units=km Length=0.00816036 bus1=p1udm2385.1.2 bus2=p1ulv2618.1.2 switch=n enabled=y phases=2 Linecode=1P_UG_AL_1/0_Brenau_2

New Line.l(r:p1udm2384-p1ulv2552) Units=km Length=0.0113285 bus1=p1udm2384.1.2 bus2=p1ulv2552.1.2 switch=n enabled=y phases=2 Linecode=1P_UG_AL_1/0_Brenau_2

New Line.l(r:p1udm2384-p1ulv2619) Units=km Length=0.00797261 bus1=p1udm2384.1.2 bus2=p1ulv2619.1.2 switch=n enabled=y phases=2 Linecode=1P_UG_AL_1/0_Brenau_2

New Line.l(r:p1udm2384-p1udm2385) Units=km Length=0.00880116 bus1=p1udm2385.1.2 bus2=p1udm2384.1.2 switch=n enabled=y phases=2 Linecode=1P_UG_AL_1/0_Brenau_2

New Line.l(r:p1udm2385-p1udm2387) Units=km Length=0.00880355 bus1=p1udm2387.1.2 bus2=p1udm2385.1.2 switch=n enabled=y phases=2 Linecode=1P_UG_AL_1/0_Brenau_2

New Line.l(r:p1udm2387-p1udm2388) Units=km Length=0.00880116 bus1=p1udm2388.1.2 bus2=p1udm2387.1.2 switch=n enabled=y phases=2 Linecode=1P_UG_AL_1/0_Brenau_2

New Line.l(r:p1udm2388-p1udt576lv) Units=km Length=0.00880932 bus1=p1udt576lv.1.2 bus2=p1udm2388.1.2 switch=n enabled=y phases=2 Linecode=1P_UG_AL_1/0_Brenau_2

New Line.l(r:p1udt577lv-p1ulv2547) Units=km Length=0.012963600000000002 bus1=p1udt577lv.1.2 bus2=p1ulv2547.1.2 switch=n enabled=y phases=2 Linecode=1P_UG_AL_1/0_Brenau_2

New Line.l(r:p1udt577lv-p1ulv7711) Units=km Length=0.0131363 bus1=p1udt577lv.1.2 bus2=p1ulv7711.1.2 switch=n enabled=y phases=2 Linecode=1P_UG_AL_1/0_Brenau_2

New Line.l(r:p1udm2394-p1ulv2546) Units=km Length=0.013049300000000002 bus1=p1udm2394.1.2 bus2=p1ulv2546.1.2 switch=n enabled=y phases=2 Linecode=1P_UG_AL_1/0_Brenau_2

New Line.l(r:p1udm2393-p1ulv2543) Units=km Length=0.0128822 bus1=p1udm2393.1.2 bus2=p1ulv2543.1.2 switch=n enabled=y phases=2 Linecode=1P_UG_AL_1/0_Brenau_2

New Line.l(r:p1udm2393-p1ulv2553) Units=km Length=0.0128739 bus1=p1udm2393.1.2 bus2=p1ulv2553.1.2 switch=n enabled=y phases=2 Linecode=1P_UG_AL_1/0_Brenau_2

New Line.l(r:p1udm2393-p1udm2394) Units=km Length=0.00925 bus1=p1udm2394.1.2 bus2=p1udm2393.1.2 switch=n enabled=y phases=2 Linecode=1P_UG_AL_1/0_Brenau_2

New Line.l(r:p1udm2394-p1udt577lv) Units=km Length=0.00925242 bus1=p1udt577lv.1.2 bus2=p1udm2394.1.2 switch=n enabled=y phases=2 Linecode=1P_UG_AL_1/0_Brenau_2

New Line.l(r:p1udm2396-p1ulv2548) Units=km Length=0.0130452 bus1=p1udm2396.1.2 bus2=p1ulv2548.1.2 switch=n enabled=y phases=2 Linecode=1P_UG_AL_1/0_Brenau_2

New Line.l(r:p1udm2396-p1ulv2555) Units=km Length=0.013505 bus1=p1udm2396.1.2 bus2=p1ulv2555.1.2 switch=n enabled=y phases=2 Linecode=1P_UG_AL_1/0_Brenau_2

New Line.l(r:p1udm2397-p1ulv2549) Units=km Length=0.0130584 bus1=p1udm2397.1.2 bus2=p1ulv2549.1.2 switch=n enabled=y phases=2 Linecode=1P_UG_AL_1/0_Brenau_2

New Line.l(r:p1udm2397-p1ulv2556) Units=km Length=0.01247 bus1=p1udm2397.1.2 bus2=p1ulv2556.1.2 switch=n enabled=y phases=2 Linecode=1P_UG_AL_1/0_Brenau_2

New Line.l(r:p1udm2398-p1ulv2551) Units=km Length=0.0131115 bus1=p1udm2398.1.2 bus2=p1ulv2551.1.2 switch=n enabled=y phases=2 Linecode=1P_UG_AL_1/0_Brenau_2

New Line.l(r:p1udm2397-p1udm2398) Units=km Length=0.00925817 bus1=p1udm2397.1.2 bus2=p1udm2398.1.2 switch=n enabled=y phases=2 Linecode=1P_UG_AL_1/0_Brenau_2

New Line.l(r:p1udm2396-p1udm2397) Units=km Length=0.00925817 bus1=p1udm2396.1.2 bus2=p1udm2397.1.2 switch=n enabled=y phases=2 Linecode=1P_UG_AL_1/0_Brenau_2

New Line.l(r:p1udm2396-p1udt577lv) Units=km Length=0.00925817 bus1=p1udt577lv.1.2 bus2=p1udm2396.1.2 switch=n enabled=y phases=2 Linecode=1P_UG_AL_1/0_Brenau_2

New Line.l(r:p1udt579lv-p1ulv2558) Units=km Length=0.0114309 bus1=p1udt579lv.1.2 bus2=p1ulv2558.1.2 switch=n enabled=y phases=2 Linecode=1P_UG_AL_1/0_Brenau_2

New Line.l(r:p1udt579lv-p1ulv2633) Units=km Length=0.008404590000000002 bus1=p1udt579lv.1.2 bus2=p1ulv2633.1.2 switch=n enabled=y phases=2 Linecode=1P_UG_AL_1/0_Brenau_2

New Line.l(r:p1udm2404-p1ulv2557) Units=km Length=0.011789 bus1=p1udm2404.1.2 bus2=p1ulv2557.1.2 switch=n enabled=y phases=2 Linecode=1P_UG_AL_1/0_Brenau_2

New Line.l(r:p1udm2404-p1ulv2635) Units=km Length=0.00859936 bus1=p1udm2404.1.2 bus2=p1ulv2635.1.2 switch=n enabled=y phases=2 Linecode=1P_UG_AL_1/0_Brenau_2

New Line.l(r:p1udm2409-p1ulv2636) Units=km Length=0.00915101 bus1=p1udm2409.1.2 bus2=p1ulv2636.1.2 switch=n enabled=y phases=2 Linecode=1P_UG_AL_1/0_Brenau_2

New Line.l(r:p1udm2404-p1udm2409) Units=km Length=0.00972347 bus1=p1udm2404.1.2 bus2=p1udm2409.1.2 switch=n enabled=y phases=2 Linecode=1P_UG_AL_1/0_Brenau_2

New Line.l(r:p1udm2404-p1udt579lv) Units=km Length=0.00973166 bus1=p1udt579lv.1.2 bus2=p1udm2404.1.2 switch=n enabled=y phases=2 Linecode=1P_UG_AL_2/0_Converse_2

New Line.l(r:p1udm2406-p1ulv2632) Units=km Length=0.00848624 bus1=p1udm2406.1.2 bus2=p1ulv2632.1.2 switch=n enabled=y phases=2 Linecode=1P_UG_AL_1/0_Brenau_2

New Line.l(r:p1udm2406-p1ulv7708) Units=km Length=0.0113617 bus1=p1udm2406.1.2 bus2=p1ulv7708.1.2 switch=n enabled=y phases=2 Linecode=1P_UG_AL_4/0_Sweetbriar_2

New Line.l(r:p1udm2406-p1udt579lv) Units=km Length=0.00972347 bus1=p1udt579lv.1.2 bus2=p1udm2406.1.2 switch=n enabled=y phases=2 Linecode=1P_UG_AL_4/0_Sweetbriar_2

New Line.l(r:p1udt580lv-p1ulv2561) Units=km Length=0.0139568 bus1=p1udt580lv.1.2 bus2=p1ulv2561.1.2 switch=n enabled=y phases=2 Linecode=1P_UG_AL_1/0_Brenau_2

New Line.l(r:p1udt580lv-p1ulv2580) Units=km Length=0.013013300000000002 bus1=p1udt580lv.1.2 bus2=p1ulv2580.1.2 switch=n enabled=y phases=2 Linecode=1P_UG_AL_1/0_Brenau_2

New Line.l(r:p1udm2411-p1ulv2560) Units=km Length=0.014298 bus1=p1udm2411.1.2 bus2=p1ulv2560.1.2 switch=n enabled=y phases=2 Linecode=1P_UG_AL_1/0_Brenau_2

New Line.l(r:p1udm2411-p1ulv2568) Units=km Length=0.0101535 bus1=p1udm2411.1.2 bus2=p1ulv2568.1.2 switch=n enabled=y phases=2 Linecode=1P_UG_AL_1/0_Brenau_2

New Line.l(r:p1udm2415-p1ulv2569) Units=km Length=0.0119977 bus1=p1udm2415.1.2 bus2=p1ulv2569.1.2 switch=n enabled=y phases=2 Linecode=1P_UG_AL_1/0_Brenau_2

New Line.l(r:p1udm2411-p1udm2415) Units=km Length=0.00988978 bus1=p1udm2411.1.2 bus2=p1udm2415.1.2 switch=n enabled=y phases=2 Linecode=1P_UG_AL_1/0_Brenau_2

New Line.l(r:p1udm2411-p1udt580lv) Units=km Length=0.00988406 bus1=p1udt580lv.1.2 bus2=p1udm2411.1.2 switch=n enabled=y phases=2 Linecode=1P_UG_AL_1/0_Brenau_2

New Line.l(r:p1udm2413-p1ulv2562) Units=km Length=0.0138693 bus1=p1udm2413.1.2 bus2=p1ulv2562.1.2 switch=n enabled=y phases=2 Linecode=1P_UG_AL_1/0_Brenau_2

New Line.l(r:p1udm2413-p1ulv2579) Units=km Length=0.0129322 bus1=p1udm2413.1.2 bus2=p1ulv2579.1.2 switch=n enabled=y phases=2 Linecode=1P_UG_AL_1/0_Brenau_2

New Line.l(r:p1udm2416-p1ulv2578) Units=km Length=0.0112118 bus1=p1udm2416.1.2 bus2=p1ulv2578.1.2 switch=n enabled=y phases=2 Linecode=1P_UG_AL_1/0_Brenau_2

New Line.l(r:p1udm2416-p1ulv7706) Units=km Length=0.0161296 bus1=p1udm2416.1.2 bus2=p1ulv7706.1.2 switch=n enabled=y phases=2 Linecode=1P_UG_AL_1/0_Brenau_2

New Line.l(r:p1udm2413-p1udm2416) Units=km Length=0.00988406 bus1=p1udm2413.1.2 bus2=p1udm2416.1.2 switch=n enabled=y phases=2 Linecode=1P_UG_AL_1/0_Brenau_2

New Line.l(r:p1udm2413-p1udt580lv) Units=km Length=0.00987585 bus1=p1udt580lv.1.2 bus2=p1udm2413.1.2 switch=n enabled=y phases=2 Linecode=1P_UG_AL_4/0_Sweetbriar_2

New Line.l(r:p1udt581lv-p1ulv2564) Units=km Length=0.0144301 bus1=p1udt581lv.1.2 bus2=p1ulv2564.1.2 switch=n enabled=y phases=2 Linecode=1P_UG_AL_1/0_Brenau_2

New Line.l(r:p1udt581lv-p1ulv2571) Units=km Length=0.013282 bus1=p1udt581lv.1.2 bus2=p1ulv2571.1.2 switch=n enabled=y phases=2 Linecode=1P_UG_AL_1/0_Brenau_2

New Line.l(r:p1udm2420-p1ulv2563) Units=km Length=0.014557 bus1=p1udm2420.1.2 bus2=p1ulv2563.1.2 switch=n enabled=y phases=2 Linecode=1P_UG_AL_1/0_Brenau_2

New Line.l(r:p1udm2420-p1ulv2574) Units=km Length=0.013443800000000002 bus1=p1udm2420.1.2 bus2=p1ulv2574.1.2 switch=n enabled=y phases=2 Linecode=1P_UG_AL_1/0_Brenau_2

New Line.l(r:p1udm2426-p1ulv2575) Units=km Length=0.0133844 bus1=p1udm2426.1.2 bus2=p1ulv2575.1.2 switch=n enabled=y phases=2 Linecode=1P_UG_AL_1/0_Brenau_2

New Line.l(r:p1udm2426-p1ulv7703) Units=km Length=0.0175576 bus1=p1udm2426.1.2 bus2=p1ulv7703.1.2 switch=n enabled=y phases=2 Linecode=1P_UG_AL_1/0_Brenau_2

New Line.l(r:p1udm2427-p1ulv2577) Units=km Length=0.0117833 bus1=p1udm2427.1.2 bus2=p1ulv2577.1.2 switch=n enabled=y phases=2 Linecode=1P_UG_AL_1/0_Brenau_2

New Line.l(r:p1udm2427-p1ulv7705) Units=km Length=0.0172676 bus1=p1udm2427.1.2 bus2=p1ulv7705.1.2 switch=n enabled=y phases=2 Linecode=1P_UG_AL_1/0_Brenau_2
