New Load.load_p1ulv2481_1 conn=wye bus1=p1ulv2481.1 kV=0.12 Vminpu=0.8 Vmaxpu=1.2 model=1 kW=2.1976836424562762 kvar=0.1051220183522544 Phases=1 !yearly=com_kw_17157_pu

New Load.load_p1ulv2481_2 conn=wye bus1=p1ulv2481.2 kV=0.12 Vminpu=0.8 Vmaxpu=1.2 model=1 kW=2.1976836424562762 kvar=0.1051220183522544 Phases=1 !yearly=com_kw_17157_pu

New Load.load_p1ulv2482_1 conn=wye bus1=p1ulv2482.1 kV=0.12 Vminpu=0.8 Vmaxpu=1.2 model=1 kW=3.2905253725089527 kvar=0.6771229563656418 Phases=1 !yearly=com_kw_1197_pu

New Load.load_p1ulv2482_2 conn=wye bus1=p1ulv2482.2 kV=0.12 Vminpu=0.8 Vmaxpu=1.2 model=1 kW=3.2905253725089527 kvar=0.6771229563656418 Phases=1 !yearly=com_kw_1197_pu

New Load.load_p1ulv2483_1 conn=wye bus1=p1ulv2483.1 kV=0.12 Vminpu=0.8 Vmaxpu=1.2 model=1 kW=2.7146312183983485 kvar=0.11264482158049681 Phases=1 !yearly=com_kw_19893_pu

New Load.load_p1ulv2483_2 conn=wye bus1=p1ulv2483.2 kV=0.12 Vminpu=0.8 Vmaxpu=1.2 model=1 kW=2.7146312183983485 kvar=0.11264482158049681 Phases=1 !yearly=com_kw_19893_pu

New Load.load_p1ulv2484_1 conn=wye bus1=p1ulv2484.1 kV=0.12 Vminpu=0.8 Vmaxpu=1.2 model=1 kW=2.606959916668558 kvar=0.5550307077474157 Phases=1 !yearly=com_kw_33605_pu

New Load.load_p1ulv2484_2 conn=wye bus1=p1ulv2484.2 kV=0.12 Vminpu=0.8 Vmaxpu=1.2 model=1 kW=2.606959916668558 kvar=0.5550307077474157 Phases=1 !yearly=com_kw_33605_pu

New Load.load_p1ulv2485_1 conn=wye bus1=p1ulv2485.1 kV=0.12 Vminpu=0.8 Vmaxpu=1.2 model=1 kW=1.839175601618853 kvar=0.4557221316666175 Phases=1 !yearly=com_kw_17204_pu

New Load.load_p1ulv2485_2 conn=wye bus1=p1ulv2485.2 kV=0.12 Vminpu=0.8 Vmaxpu=1.2 model=1 kW=1.839175601618853 kvar=0.4557221316666175 Phases=1 !yearly=com_kw_17204_pu

New Load.load_p1ulv2486_1 conn=wye bus1=p1ulv2486.1 kV=0.12 Vminpu=0.8 Vmaxpu=1.2 model=1 kW=4.899147535352165 kvar=0.4463532590973459 Phases=1 !yearly=com_kw_33829_pu

New Load.load_p1ulv2486_2 conn=wye bus1=p1ulv2486.2 kV=0.12 Vminpu=0.8 Vmaxpu=1.2 model=1 kW=4.899147535352165 kvar=0.4463532590973459 Phases=1 !yearly=com_kw_33829_pu

New Load.load_p1ulv2487_1 conn=wye bus1=p1ulv2485.1 kV=0.12 Vminpu=0.8 Vmaxpu=1.2 model=1 kW=2.1661051467831762 kvar=0.6317161905393411 Phases=1 !yearly=com_kw_19648_pu

New Load.load_p1ulv2487_2 conn=wye bus1=p1ulv2485.2 kV=0.12 Vminpu=0.8 Vmaxpu=1.2 model=1 kW=2.1661051467831762 kvar=0.6317161905393411 Phases=1 !yearly=com_kw_19648_pu

New Load.load_p1ulv2488_1 conn=wye bus1=p1ulv2488.1 kV=0.12 Vminpu=0.8 Vmaxpu=1.2 model=1 kW=5.12279426874869 kvar=1.4312831856323216 Phases=1 !yearly=com_kw_39311_pu

New Load.load_p1ulv2488_2 conn=wye bus1=p1ulv2488.2 kV=0.12 Vminpu=0.8 Vmaxpu=1.2 model=1 kW=5.12279426874869 kvar=1.4312831856323216 Phases=1 !yearly=com_kw_39311_pu

New Load.load_p1ulv2489_1 conn=wye bus1=p1ulv2489.1 kV=0.12 Vminpu=0.8 Vmaxpu=1.2 model=1 kW=4.651687178318714 kvar=0.25525938119103875 Phases=1 !yearly=com_kw_32058_pu

New Load.load_p1ulv2489_2 conn=wye bus1=p1ulv2489.2 kV=0.12 Vminpu=0.8 Vmaxpu=1.2 model=1 kW=4.651687178318714 kvar=0.25525938119103875 Phases=1 !yearly=com_kw_32058_pu

New Load.load_p1ulv2490_1 conn=wye bus1=p1ulv2490.1 kV=0.12 Vminpu=0.8 Vmaxpu=1.2 model=1 kW=4.899147535352165 kvar=0.4463532590973459 Phases=1 !yearly=com_kw_33829_pu

New Load.load_p1ulv2490_2 conn=wye bus1=p1ulv2490.2 kV=0.12 Vminpu=0.8 Vmaxpu=1.2 model=1 kW=4.899147535352165 kvar=0.4463532590973459 Phases=1 !yearly=com_kw_33829_pu

New Load.load_p1ulv2491_1 conn=wye bus1=p1ulv2491.1 kV=0.12 Vminpu=0.8 Vmaxpu=1.2 model=1 kW=2.2489699911360574 kvar=0.6200743429841856 Phases=1 !yearly=com_kw_2255_pu

New Load.load_p1ulv2491_2 conn=wye bus1=p1ulv2491.2 kV=0.12 Vminpu=0.8 Vmaxpu=1.2 model=1 kW=2.2489699911360574 kvar=0.6200743429841856 Phases=1 !yearly=com_kw_2255_pu

New Load.load_p1ulv2492_1 conn=wye bus1=p1ulv2492.1 kV=0.12 Vminpu=0.8 Vmaxpu=1.2 model=1 kW=3.587045329539647 kvar=1.3923216471043 Phases=1 !yearly=com_kw_16138_pu

New Load.load_p1ulv2492_2 conn=wye bus1=p1ulv2492.2 kV=0.12 Vminpu=0.8 Vmaxpu=1.2 model=1 kW=3.587045329539647 kvar=1.3923216471043 Phases=1 !yearly=com_kw_16138_pu

New Load.load_p1ulv2493_1 conn=wye bus1=p1ulv2493.1 kV=0.12 Vminpu=0.8 Vmaxpu=1.2 model=1 kW=3.283752349161772 kvar=1.1583018658461228 Phases=1 !yearly=res_kw_4012_pu

New Load.load_p1ulv2493_2 conn=wye bus1=p1ulv2493.2 kV=0.12 Vminpu=0.8 Vmaxpu=1.2 model=1 kW=3.283752349161772 kvar=1.1583018658461228 Phases=1 !yearly=res_kw_4012_pu

New Load.load_p1ulv2494_1 conn=wye bus1=p1ulv2494.1 kV=0.12 Vminpu=0.8 Vmaxpu=1.2 model=1 kW=1.6323867069620042 kvar=0.40255171211713736 Phases=1 !yearly=com_kw_17825_pu

New Load.load_p1ulv2494_2 conn=wye bus1=p1ulv2494.2 kV=0.12 Vminpu=0.8 Vmaxpu=1.2 model=1 kW=1.6323867069620042 kvar=0.40255171211713736 Phases=1 !yearly=com_kw_17825_pu

New Load.load_p1ulv2495_1 conn=wye bus1=p1ulv2495.1 kV=0.12 Vminpu=0.8 Vmaxpu=1.2 model=1 kW=8.584684862576845 kvar=1.954717063230538 Phases=1 !yearly=com_kw_21058_pu

New Load.load_p1ulv2495_2 conn=wye bus1=p1ulv2495.2 kV=0.12 Vminpu=0.8 Vmaxpu=1.2 model=1 kW=8.584684862576845 kvar=1.954717063230538 Phases=1 !yearly=com_kw_21058_pu

New Load.load_p1ulv2496_1 conn=wye bus1=p1ulv2496.1 kV=0.12 Vminpu=0.8 Vmaxpu=1.2 model=1 kW=3.4545951148645555 kvar=0.267674553409051 Phases=1 !yearly=com_kw_41478_pu

New Load.load_p1ulv2496_2 conn=wye bus1=p1ulv2496.2 kV=0.12 Vminpu=0.8 Vmaxpu=1.2 model=1 kW=3.4545951148645555 kvar=0.267674553409051 Phases=1 !yearly=com_kw_41478_pu

New Load.load_p1ulv2497_1 conn=wye bus1=p1ulv2497.1 kV=0.12 Vminpu=0.8 Vmaxpu=1.2 model=1 kW=13.936786218054946 kvar=1.3067403946966558 Phases=1 !yearly=com_kw_17173_pu

New Load.load_p1ulv2497_2 conn=wye bus1=p1ulv2497.2 kV=0.12 Vminpu=0.8 Vmaxpu=1.2 model=1 kW=13.936786218054946 kvar=1.3067403946966558 Phases=1 !yearly=com_kw_17173_pu

New Load.load_p1ulv2498_1 conn=wye bus1=p1ulv2498.1 kV=0.12 Vminpu=0.8 Vmaxpu=1.2 model=1 kW=0.9571742049653674 kvar=0.37384849940856246 Phases=1 !yearly=res_kw_2550_pu

New Load.load_p1ulv2498_2 conn=wye bus1=p1ulv2498.2 kV=0.12 Vminpu=0.8 Vmaxpu=1.2 model=1 kW=0.9571742049653674 kvar=0.37384849940856246 Phases=1 !yearly=res_kw_2550_pu

New Load.load_p1ulv2499_1 conn=wye bus1=p1ulv2499.1 kV=0.12 Vminpu=0.8 Vmaxpu=1.2 model=1 kW=1.9124808875079877 kvar=0.49876045144211356 Phases=1 !yearly=com_kw_2601_pu

New Load.load_p1ulv2499_2 conn=wye bus1=p1ulv2499.2 kV=0.12 Vminpu=0.8 Vmaxpu=1.2 model=1 kW=1.9124808875079877 kvar=0.49876045144211356 Phases=1 !yearly=com_kw_2601_pu

New Load.load_p1ulv2500_1 conn=wye bus1=p1ulv2500.1 kV=0.12 Vminpu=0.8 Vmaxpu=1.2 model=1 kW=3.1033460388439367 kvar=0.7638485464174711 Phases=1 !yearly=res_kw_11000_pu

New Load.load_p1ulv2500_2 conn=wye bus1=p1ulv2500.2 kV=0.12 Vminpu=0.8 Vmaxpu=1.2 model=1 kW=3.1033460388439367 kvar=0.7638485464174711 Phases=1 !yearly=res_kw_11000_pu

New Load.load_p1ulv2501_1 conn=wye bus1=p1ulv2501.1 kV=0.12 Vminpu=0.8 Vmaxpu=1.2 model=1 kW=6.057087739211849 kvar=2.7352457219388664 Phases=1 !yearly=res_kw_641_pu

New Load.load_p1ulv2501_2 conn=wye bus1=p1ulv2501.2 kV=0.12 Vminpu=0.8 Vmaxpu=1.2 model=1 kW=6.057087739211849 kvar=2.7352457219388664 Phases=1 !yearly=res_kw_641_pu

New Load.load_p1ulv2502_1 conn=wye bus1=p1ulv2502.1 kV=0.12 Vminpu=0.8 Vmaxpu=1.2 model=1 kW=3.2820312219988756 kvar=1.0054859406296943 Phases=1 !yearly=res_kw_2544_pu

New Load.load_p1ulv2502_2 conn=wye bus1=p1ulv2502.2 kV=0.12 Vminpu=0.8 Vmaxpu=1.2 model=1 kW=3.2820312219988756 kvar=1.0054859406296943 Phases=1 !yearly=res_kw_2544_pu

New Load.load_p1ulv2503_1 conn=wye bus1=p1ulv2502.1 kV=0.12 Vminpu=0.8 Vmaxpu=1.2 model=1 kW=5.628502263501665 kvar=1.2985414727201963 Phases=1 !yearly=res_kw_12002_pu

New Load.load_p1ulv2503_2 conn=wye bus1=p1ulv2502.2 kV=0.12 Vminpu=0.8 Vmaxpu=1.2 model=1 kW=5.628502263501665 kvar=1.2985414727201963 Phases=1 !yearly=res_kw_12002_pu

New Load.load_p1ulv2504_1 conn=wye bus1=p1ulv2504.1 kV=0.12 Vminpu=0.8 Vmaxpu=1.2 model=1 kW=4.3887101289978325 kvar=0.6392448986655579 Phases=1 !yearly=res_kw_3842_pu

New Load.load_p1ulv2504_2 conn=wye bus1=p1ulv2504.2 kV=0.12 Vminpu=0.8 Vmaxpu=1.2 model=1 kW=4.3887101289978325 kvar=0.6392448986655579 Phases=1 !yearly=res_kw_3842_pu

New Load.load_p1ulv2505_1 conn=wye bus1=p1ulv2505.1 kV=0.12 Vminpu=0.8 Vmaxpu=1.2 model=1 kW=2.606959916668558 kvar=0.5550307077474157 Phases=1 !yearly=com_kw_33605_pu

New Load.load_p1ulv2505_2 conn=wye bus1=p1ulv2505.2 kV=0.12 Vminpu=0.8 Vmaxpu=1.2 model=1 kW=2.606959916668558 kvar=0.5550307077474157 Phases=1 !yearly=com_kw_33605_pu

New Load.load_p1ulv2506_1 conn=wye bus1=p1ulv2506.1 kV=0.12 Vminpu=0.8 Vmaxpu=1.2 model=1 kW=1.1146755706450526 kvar=0.5956233891083068 Phases=1 !yearly=res_kw_1730_pu

New Load.load_p1ulv2506_2 conn=wye bus1=p1ulv2506.2 kV=0.12 Vminpu=0.8 Vmaxpu=1.2 model=1 kW=1.1146755706450526 kvar=0.5956233891083068 Phases=1 !yearly=res_kw_1730_pu

New Load.load_p1ulv2507_1 conn=wye bus1=p1ulv2506.1 kV=0.12 Vminpu=0.8 Vmaxpu=1.2 model=1 kW=1.5924067901709626 kvar=0.46681640832512994 Phases=1 !yearly=res_kw_9813_pu

New Load.load_p1ulv2507_2 conn=wye bus1=p1ulv2506.2 kV=0.12 Vminpu=0.8 Vmaxpu=1.2 model=1 kW=1.5924067901709626 kvar=0.46681640832512994 Phases=1 !yearly=res_kw_9813_pu

New Load.load_p1ulv2508_1 conn=wye bus1=p1ulv2508.1 kV=0.12 Vminpu=0.8 Vmaxpu=1.2 model=1 kW=1.512570468260857 kvar=0.34925944632648986 Phases=1 !yearly=com_kw_32244_pu

New Load.load_p1ulv2508_2 conn=wye bus1=p1ulv2508.2 kV=0.12 Vminpu=0.8 Vmaxpu=1.2 model=1 kW=1.512570468260857 kvar=0.34925944632648986 Phases=1 !yearly=com_kw_32244_pu

New Load.load_p1ulv2509_1 conn=wye bus1=p1ulv2509.1 kV=0.12 Vminpu=0.8 Vmaxpu=1.2 model=1 kW=1.3971565576231122 kvar=0.3916092063939396 Phases=1 !yearly=res_kw_7881_pu

New Load.load_p1ulv2509_2 conn=wye bus1=p1ulv2509.2 kV=0.12 Vminpu=0.8 Vmaxpu=1.2 model=1 kW=1.3971565576231122 kvar=0.3916092063939396 Phases=1 !yearly=res_kw_7881_pu

New Load.load_p1ulv2510_1 conn=wye bus1=p1ulv2510.1 kV=0.12 Vminpu=0.8 Vmaxpu=1.2 model=1 kW=3.3557486353305213 kvar=1.524803205527562 Phases=1 !yearly=res_kw_7798_pu

New Load.load_p1ulv2510_2 conn=wye bus1=p1ulv2510.2 kV=0.12 Vminpu=0.8 Vmaxpu=1.2 model=1 kW=3.3557486353305213 kvar=1.524803205527562 Phases=1 !yearly=res_kw_7798_pu

New Load.load_p1ulv2511_1 conn=wye bus1=p1ulv2511.1 kV=0.12 Vminpu=0.8 Vmaxpu=1.2 model=1 kW=3.5467139276671142 kvar=0.9141807744100258 Phases=1 !yearly=res_kw_550_pu

New Load.load_p1ulv2511_2 conn=wye bus1=p1ulv2511.2 kV=0.12 Vminpu=0.8 Vmaxpu=1.2 model=1 kW=3.5467139276671142 kvar=0.9141807744100258 Phases=1 !yearly=res_kw_550_pu

New Load.load_p1ulv2512_1 conn=wye bus1=p1ulv2512.1 kV=0.12 Vminpu=0.8 Vmaxpu=1.2 model=1 kW=2.461258219885108 kvar=0.2667854946617303 Phases=1 !yearly=res_kw_1089_pu

New Load.load_p1ulv2512_2 conn=wye bus1=p1ulv2512.2 kV=0.12 Vminpu=0.8 Vmaxpu=1.2 model=1 kW=2.461258219885108 kvar=0.2667854946617303 Phases=1 !yearly=res_kw_1089_pu

New Load.load_p1ulv2513_1 conn=wye bus1=p1ulv2513.1 kV=0.12 Vminpu=0.8 Vmaxpu=1.2 model=1 kW=1.1146755706450526 kvar=0.5956233891083068 Phases=1 !yearly=res_kw_1730_pu

New Load.load_p1ulv2513_2 conn=wye bus1=p1ulv2513.2 kV=0.12 Vminpu=0.8 Vmaxpu=1.2 model=1 kW=1.1146755706450526 kvar=0.5956233891083068 Phases=1 !yearly=res_kw_1730_pu

New Load.load_p1ulv2514_1 conn=wye bus1=p1ulv2514.1 kV=0.12 Vminpu=0.8 Vmaxpu=1.2 model=1 kW=1.941898785419248 kvar=0.8498359578625553 Phases=1 !yearly=res_kw_705_pu

New Load.load_p1ulv2514_2 conn=wye bus1=p1ulv2514.2 kV=0.12 Vminpu=0.8 Vmaxpu=1.2 model=1 kW=1.941898785419248 kvar=0.8498359578625553 Phases=1 !yearly=res_kw_705_pu

New Load.load_p1ulv2515_1 conn=wye bus1=p1ulv2514.1 kV=0.12 Vminpu=0.8 Vmaxpu=1.2 model=1 kW=2.514014660495149 kvar=0.15947505825586705 Phases=1 !yearly=res_kw_15164_pu

New Load.load_p1ulv2515_2 conn=wye bus1=p1ulv2514.2 kV=0.12 Vminpu=0.8 Vmaxpu=1.2 model=1 kW=2.514014660495149 kvar=0.15947505825586705 Phases=1 !yearly=res_kw_15164_pu

New Load.load_p1ulv2516_1 conn=wye bus1=p1ulv2516.1 kV=0.12 Vminpu=0.8 Vmaxpu=1.2 model=1 kW=6.295629398269137 kvar=0.2827533932313093 Phases=1 !yearly=res_kw_9761_pu

New Load.load_p1ulv2516_2 conn=wye bus1=p1ulv2516.2 kV=0.12 Vminpu=0.8 Vmaxpu=1.2 model=1 kW=6.295629398269137 kvar=0.2827533932313093 Phases=1 !yearly=res_kw_9761_pu

New Load.load_p1ulv2517_1 conn=wye bus1=p1ulv2517.1 kV=0.12 Vminpu=0.8 Vmaxpu=1.2 model=1 kW=3.6571308432470016 kvar=0.20663535364298297 Phases=1 !yearly=res_kw_9618_pu

New Load.load_p1ulv2517_2 conn=wye bus1=p1ulv2517.2 kV=0.12 Vminpu=0.8 Vmaxpu=1.2 model=1 kW=3.6571308432470016 kvar=0.20663535364298297 Phases=1 !yearly=res_kw_9618_pu

New Load.load_p1ulv2518_1 conn=wye bus1=p1ulv2518.1 kV=0.12 Vminpu=0.8 Vmaxpu=1.2 model=1 kW=6.052620586065284 kvar=0.6154724266148378 Phases=1 !yearly=res_kw_7000_pu

New Load.load_p1ulv2518_2 conn=wye bus1=p1ulv2518.2 kV=0.12 Vminpu=0.8 Vmaxpu=1.2 model=1 kW=6.052620586065284 kvar=0.6154724266148378 Phases=1 !yearly=res_kw_7000_pu

New Load.load_p1ulv2519_1 conn=wye bus1=p1ulv2519.1 kV=0.12 Vminpu=0.8 Vmaxpu=1.2 model=1 kW=3.6571308432470016 kvar=0.20663535364298297 Phases=1 !yearly=res_kw_9618_pu

New Load.load_p1ulv2519_2 conn=wye bus1=p1ulv2519.2 kV=0.12 Vminpu=0.8 Vmaxpu=1.2 model=1 kW=3.6571308432470016 kvar=0.20663535364298297 Phases=1 !yearly=res_kw_9618_pu

New Load.load_p1ulv2520_1 conn=wye bus1=p1ulv2520.1 kV=0.12 Vminpu=0.8 Vmaxpu=1.2 model=1 kW=3.587970132844775 kvar=0.1303769308718786 Phases=1 !yearly=res_kw_319_pu

New Load.load_p1ulv2520_2 conn=wye bus1=p1ulv2520.2 kV=0.12 Vminpu=0.8 Vmaxpu=1.2 model=1 kW=3.587970132844775 kvar=0.1303769308718786 Phases=1 !yearly=res_kw_319_pu

New Load.load_p1ulv2521_1 conn=wye bus1=p1ulv2520.1 kV=0.12 Vminpu=0.8 Vmaxpu=1.2 model=1 kW=1.72741179714774 kvar=0.6347670345747078 Phases=1 !yearly=res_kw_3449_pu

New Load.load_p1ulv2521_2 conn=wye bus1=p1ulv2520.2 kV=0.12 Vminpu=0.8 Vmaxpu=1.2 model=1 kW=1.72741179714774 kvar=0.6347670345747078 Phases=1 !yearly=res_kw_3449_pu

New Load.load_p1ulv2522_1 conn=wye bus1=p1ulv2522.1 kV=0.12 Vminpu=0.8 Vmaxpu=1.2 model=1 kW=2.1976836424562762 kvar=0.1051220183522544 Phases=1 !yearly=com_kw_17157_pu

New Load.load_p1ulv2522_2 conn=wye bus1=p1ulv2522.2 kV=0.12 Vminpu=0.8 Vmaxpu=1.2 model=1 kW=2.1976836424562762 kvar=0.1051220183522544 Phases=1 !yearly=com_kw_17157_pu

New Load.load_p1ulv2523_1 conn=wye bus1=p1ulv2523.1 kV=0.12 Vminpu=0.8 Vmaxpu=1.2 model=1 kW=2.499057743464556 kvar=0.3373788699823939 Phases=1 !yearly=com_kw_41529_pu

New Load.load_p1ulv2523_2 conn=wye bus1=p1ulv2523.2 kV=0.12 Vminpu=0.8 Vmaxpu=1.2 model=1 kW=2.499057743464556 kvar=0.3373788699823939 Phases=1 !yearly=com_kw_41529_pu

New Load.load_p1ulv2524_1 conn=wye bus1=p1ulv2524.1 kV=0.12 Vminpu=0.8 Vmaxpu=1.2 model=1 kW=3.498014754859445 kvar=0.018922139033990728 Phases=1 !yearly=com_kw_22751_pu

New Load.load_p1ulv2524_2 conn=wye bus1=p1ulv2524.2 kV=0.12 Vminpu=0.8 Vmaxpu=1.2 model=1 kW=3.498014754859445 kvar=0.018922139033990728 Phases=1 !yearly=com_kw_22751_pu

New Load.load_p1ulv2525_1 conn=wye bus1=p1ulv2525.1 kV=0.12 Vminpu=0.8 Vmaxpu=1.2 model=1 kW=1.7306146078932911 kvar=0.42683788590794824 Phases=1 !yearly=com_kw_1644_pu

New Load.load_p1ulv2525_2 conn=wye bus1=p1ulv2525.2 kV=0.12 Vminpu=0.8 Vmaxpu=1.2 model=1 kW=1.7306146078932911 kvar=0.42683788590794824 Phases=1 !yearly=com_kw_1644_pu

New Load.load_p1ulv2526_1 conn=wye bus1=p1ulv2526.1 kV=0.12 Vminpu=0.8 Vmaxpu=1.2 model=1 kW=3.2659851154673674 kvar=0.7880475847724098 Phases=1 !yearly=com_kw_16651_pu

New Load.load_p1ulv2526_2 conn=wye bus1=p1ulv2526.2 kV=0.12 Vminpu=0.8 Vmaxpu=1.2 model=1 kW=3.2659851154673674 kvar=0.7880475847724098 Phases=1 !yearly=com_kw_16651_pu

New Load.load_p1ulv2527_1 conn=wye bus1=p1ulv2522.1 kV=0.12 Vminpu=0.8 Vmaxpu=1.2 model=1 kW=12.406447565237393 kvar=0.5336917296888387 Phases=1 !yearly=res_kw_8039_pu

New Load.load_p1ulv2527_2 conn=wye bus1=p1ulv2522.2 kV=0.12 Vminpu=0.8 Vmaxpu=1.2 model=1 kW=12.406447565237393 kvar=0.5336917296888387 Phases=1 !yearly=res_kw_8039_pu

New Load.load_p1ulv2528_1 conn=wye bus1=p1ulv2528.1 kV=0.12 Vminpu=0.8 Vmaxpu=1.2 model=1 kW=5.513516590574549 kvar=0.9720823268744743 Phases=1 !yearly=res_kw_3545_pu

New Load.load_p1ulv2528_2 conn=wye bus1=p1ulv2528.2 kV=0.12 Vminpu=0.8 Vmaxpu=1.2 model=1 kW=5.513516590574549 kvar=0.9720823268744743 Phases=1 !yearly=res_kw_3545_pu

New Load.load_p1ulv2529_1 conn=wye bus1=p1ulv2529.1 kV=0.12 Vminpu=0.8 Vmaxpu=1.2 model=1 kW=2.4926492618897855 kvar=0.9041271816014727 Phases=1 !yearly=res_kw_349_pu

New Load.load_p1ulv2529_2 conn=wye bus1=p1ulv2529.2 kV=0.12 Vminpu=0.8 Vmaxpu=1.2 model=1 kW=2.4926492618897855 kvar=0.9041271816014727 Phases=1 !yearly=res_kw_349_pu

New Load.load_p1ulv2530_1 conn=wye bus1=p1ulv2530.1 kV=0.12 Vminpu=0.8 Vmaxpu=1.2 model=1 kW=5.163859432017726 kvar=1.0239780466420842 Phases=1 !yearly=res_kw_13674_pu

New Load.load_p1ulv2530_2 conn=wye bus1=p1ulv2530.2 kV=0.12 Vminpu=0.8 Vmaxpu=1.2 model=1 kW=5.163859432017726 kvar=1.0239780466420842 Phases=1 !yearly=res_kw_13674_pu

New Load.load_p1ulv2531_1 conn=wye bus1=p1ulv2531.1 kV=0.12 Vminpu=0.8 Vmaxpu=1.2 model=1 kW=6.6597631232879895 kvar=0.20105663742543303 Phases=1 !yearly=res_kw_8341_pu

New Load.load_p1ulv2531_2 conn=wye bus1=p1ulv2531.2 kV=0.12 Vminpu=0.8 Vmaxpu=1.2 model=1 kW=6.6597631232879895 kvar=0.20105663742543303 Phases=1 !yearly=res_kw_8341_pu

New Load.load_p1ulv2532_1 conn=wye bus1=p1ulv2524.1 kV=0.12 Vminpu=0.8 Vmaxpu=1.2 model=1 kW=3.025577912376512 kvar=0.6479907691217454 Phases=1 !yearly=com_kw_35494_pu

New Load.load_p1ulv2532_2 conn=wye bus1=p1ulv2524.2 kV=0.12 Vminpu=0.8 Vmaxpu=1.2 model=1 kW=3.025577912376512 kvar=0.6479907691217454 Phases=1 !yearly=com_kw_35494_pu

New Load.load_p1ulv2533_1 conn=wye bus1=p1ulv2533.1 kV=0.12 Vminpu=0.8 Vmaxpu=1.2 model=1 kW=0.8288850538480296 kvar=0.31695217299610473 Phases=1 !yearly=res_kw_15213_pu

New Load.load_p1ulv2533_2 conn=wye bus1=p1ulv2533.2 kV=0.12 Vminpu=0.8 Vmaxpu=1.2 model=1 kW=0.8288850538480296 kvar=0.31695217299610473 Phases=1 !yearly=res_kw_15213_pu

New Load.load_p1ulv2534_1 conn=wye bus1=p1ulv2534.1 kV=0.12 Vminpu=0.8 Vmaxpu=1.2 model=1 kW=10.48542762108305 kvar=3.282825132114785 Phases=1 !yearly=res_kw_14004_pu

New Load.load_p1ulv2534_2 conn=wye bus1=p1ulv2534.2 kV=0.12 Vminpu=0.8 Vmaxpu=1.2 model=1 kW=10.48542762108305 kvar=3.282825132114785 Phases=1 !yearly=res_kw_14004_pu

New Load.load_p1ulv2535_1 conn=wye bus1=p1ulv2535.1 kV=0.12 Vminpu=0.8 Vmaxpu=1.2 model=1 kW=5.385772821478587 kvar=1.6009172710699977 Phases=1 !yearly=com_kw_20964_pu

New Load.load_p1ulv2535_2 conn=wye bus1=p1ulv2535.2 kV=0.12 Vminpu=0.8 Vmaxpu=1.2 model=1 kW=5.385772821478587 kvar=1.6009172710699977 Phases=1 !yearly=com_kw_20964_pu

New Load.load_p1ulv2536_1 conn=wye bus1=p1ulv2536.1 kV=0.12 Vminpu=0.8 Vmaxpu=1.2 model=1 kW=3.7955530160091877 kvar=0.9939393246787002 Phases=1 !yearly=com_kw_17799_pu

New Load.load_p1ulv2536_2 conn=wye bus1=p1ulv2536.2 kV=0.12 Vminpu=0.8 Vmaxpu=1.2 model=1 kW=3.7955530160091877 kvar=0.9939393246787002 Phases=1 !yearly=com_kw_17799_pu

New Load.load_p1ulv2537_1 conn=wye bus1=p1ulv2537.1 kV=0.12 Vminpu=0.8 Vmaxpu=1.2 model=1 kW=7.478005948066739 kvar=1.9352667252545943 Phases=1 !yearly=res_kw_4230_pu

New Load.load_p1ulv2537_2 conn=wye bus1=p1ulv2537.2 kV=0.12 Vminpu=0.8 Vmaxpu=1.2 model=1 kW=7.478005948066739 kvar=1.9352667252545943 Phases=1 !yearly=res_kw_4230_pu

New Load.load_p1ulv2538_1 conn=wye bus1=p1ulv2538.1 kV=0.12 Vminpu=0.8 Vmaxpu=1.2 model=1 kW=4.758577951743434 kvar=1.057068356418607 Phases=1 !yearly=res_kw_2255_pu

New Load.load_p1ulv2538_2 conn=wye bus1=p1ulv2538.2 kV=0.12 Vminpu=0.8 Vmaxpu=1.2 model=1 kW=4.758577951743434 kvar=1.057068356418607 Phases=1 !yearly=res_kw_2255_pu

New Load.load_p1ulv2539_1 conn=wye bus1=p1ulv2539.1 kV=0.12 Vminpu=0.8 Vmaxpu=1.2 model=1 kW=1.94390101914808 kvar=0.4734308884348923 Phases=1 !yearly=res_kw_3018_pu

New Load.load_p1ulv2539_2 conn=wye bus1=p1ulv2539.2 kV=0.12 Vminpu=0.8 Vmaxpu=1.2 model=1 kW=1.94390101914808 kvar=0.4734308884348923 Phases=1 !yearly=res_kw_3018_pu

New Load.load_p1ulv2540_1 conn=wye bus1=p1ulv2540.1 kV=0.12 Vminpu=0.8 Vmaxpu=1.2 model=1 kW=2.713755381328842 kvar=0.08332606525685386 Phases=1 !yearly=res_kw_12019_pu

New Load.load_p1ulv2540_2 conn=wye bus1=p1ulv2540.2 kV=0.12 Vminpu=0.8 Vmaxpu=1.2 model=1 kW=2.713755381328842 kvar=0.08332606525685386 Phases=1 !yearly=res_kw_12019_pu

New Load.load_p1ulv2541_1 conn=wye bus1=p1ulv2540.1 kV=0.12 Vminpu=0.8 Vmaxpu=1.2 model=1 kW=1.5315004956850187 kvar=0.5451120192288488 Phases=1 !yearly=res_kw_11790_pu

New Load.load_p1ulv2541_2 conn=wye bus1=p1ulv2540.2 kV=0.12 Vminpu=0.8 Vmaxpu=1.2 model=1 kW=1.5315004956850187 kvar=0.5451120192288488 Phases=1 !yearly=res_kw_11790_pu

New Load.load_p1ulv2542_1 conn=wye bus1=p1ulv2542.1 kV=0.12 Vminpu=0.8 Vmaxpu=1.2 model=1 kW=4.060834559711965 kvar=0.4528637167980347 Phases=1 !yearly=res_kw_2131_pu

New Load.load_p1ulv2542_2 conn=wye bus1=p1ulv2542.2 kV=0.12 Vminpu=0.8 Vmaxpu=1.2 model=1 kW=4.060834559711965 kvar=0.4528637167980347 Phases=1 !yearly=res_kw_2131_pu

New Load.load_p1ulv2543_1 conn=wye bus1=p1ulv2543.1 kV=0.12 Vminpu=0.8 Vmaxpu=1.2 model=1 kW=2.213575917506633 kvar=0.6705750786458127 Phases=1 !yearly=res_kw_9286_pu

New Load.load_p1ulv2543_2 conn=wye bus1=p1ulv2543.2 kV=0.12 Vminpu=0.8 Vmaxpu=1.2 model=1 kW=2.213575917506633 kvar=0.6705750786458127 Phases=1 !yearly=res_kw_9286_pu

New Load.load_p1ulv2544 conn=wye bus1=p1ulv2544.1.2.3 kV=0.48 Vminpu=0.8 Vmaxpu=1.2 model=1 kW=23.375684319251025 kvar=6.241643614946959 Phases=3 !yearly=com_kw_19420_pu

New Load.load_p1ulv2545_1 conn=wye bus1=p1ulv2543.1 kV=0.12 Vminpu=0.8 Vmaxpu=1.2 model=1 kW=1.1212324580541053 kvar=0.5100712782164012 Phases=1 !yearly=res_kw_11184_pu

New Load.load_p1ulv2545_2 conn=wye bus1=p1ulv2543.2 kV=0.12 Vminpu=0.8 Vmaxpu=1.2 model=1 kW=1.1212324580541053 kvar=0.5100712782164012 Phases=1 !yearly=res_kw_11184_pu

New Load.load_p1ulv2546_1 conn=wye bus1=p1ulv2546.1 kV=0.12 Vminpu=0.8 Vmaxpu=1.2 model=1 kW=1.5573656346516838 kvar=0.5594661892352927 Phases=1 !yearly=res_kw_2816_pu

New Load.load_p1ulv2546_2 conn=wye bus1=p1ulv2546.2 kV=0.12 Vminpu=0.8 Vmaxpu=1.2 model=1 kW=1.5573656346516838 kvar=0.5594661892352927 Phases=1 !yearly=res_kw_2816_pu

New Load.load_p1ulv2547_1 conn=wye bus1=p1ulv2547.1 kV=0.12 Vminpu=0.8 Vmaxpu=1.2 model=1 kW=1.213865951323732 kvar=0.4075442101516516 Phases=1 !yearly=res_kw_12933_pu

New Load.load_p1ulv2547_2 conn=wye bus1=p1ulv2547.2 kV=0.12 Vminpu=0.8 Vmaxpu=1.2 model=1 kW=1.213865951323732 kvar=0.4075442101516516 Phases=1 !yearly=res_kw_12933_pu

New Load.load_p1ulv2548_1 conn=wye bus1=p1ulv2548.1 kV=0.12 Vminpu=0.8 Vmaxpu=1.2 model=1 kW=3.163783450414519 kvar=0.9341498819217712 Phases=1 !yearly=res_kw_7129_pu

New Load.load_p1ulv2548_2 conn=wye bus1=p1ulv2548.2 kV=0.12 Vminpu=0.8 Vmaxpu=1.2 model=1 kW=3.163783450414519 kvar=0.9341498819217712 Phases=1 !yearly=res_kw_7129_pu

New Load.load_p1ulv2549_1 conn=wye bus1=p1ulv2549.1 kV=0.12 Vminpu=0.8 Vmaxpu=1.2 model=1 kW=2.2816928104449037 kvar=0.4107329194522798 Phases=1 !yearly=res_kw_4327_pu

New Load.load_p1ulv2549_2 conn=wye bus1=p1ulv2549.2 kV=0.12 Vminpu=0.8 Vmaxpu=1.2 model=1 kW=2.2816928104449037 kvar=0.4107329194522798 Phases=1 !yearly=res_kw_4327_pu

New Load.load_p1ulv2550_1 conn=wye bus1=p1ulv2549.1 kV=0.12 Vminpu=0.8 Vmaxpu=1.2 model=1 kW=3.9994659588532486 kvar=0.11719391972788323 Phases=1 !yearly=res_kw_12265_pu

New Load.load_p1ulv2550_2 conn=wye bus1=p1ulv2549.2 kV=0.12 Vminpu=0.8 Vmaxpu=1.2 model=1 kW=3.9994659588532486 kvar=0.11719391972788323 Phases=1 !yearly=res_kw_12265_pu

New Load.load_p1ulv2551_1 conn=wye bus1=p1ulv2551.1 kV=0.12 Vminpu=0.8 Vmaxpu=1.2 model=1 kW=3.9994659588532486 kvar=0.11719391972788323 Phases=1 !yearly=res_kw_12265_pu

New Load.load_p1ulv2551_2 conn=wye bus1=p1ulv2551.2 kV=0.12 Vminpu=0.8 Vmaxpu=1.2 model=1 kW=3.9994659588532486 kvar=0.11719391972788323 Phases=1 !yearly=res_kw_12265_pu

New Load.load_p1ulv2552_1 conn=wye bus1=p1ulv2552.1 kV=0.12 Vminpu=0.8 Vmaxpu=1.2 model=1 kW=0.4110154606851692 kvar=0.13550356039898107 Phases=1 !yearly=res_kw_3231_pu

New Load.load_p1ulv2552_2 conn=wye bus1=p1ulv2552.2 kV=0.12 Vminpu=0.8 Vmaxpu=1.2 model=1 kW=0.4110154606851692 kvar=0.13550356039898107 Phases=1 !yearly=res_kw_3231_pu

New Load.load_p1ulv2553_1 conn=wye bus1=p1ulv2553.1 kV=0.12 Vminpu=0.8 Vmaxpu=1.2 model=1 kW=0.696455257947775 kvar=0.26943121901999684 Phases=1 !yearly=res_kw_8494_pu

New Load.load_p1ulv2553_2 conn=wye bus1=p1ulv2553.2 kV=0.12 Vminpu=0.8 Vmaxpu=1.2 model=1 kW=0.696455257947775 kvar=0.26943121901999684 Phases=1 !yearly=res_kw_8494_pu

New Load.load_p1ulv2554_1 conn=wye bus1=p1ulv2553.1 kV=0.12 Vminpu=0.8 Vmaxpu=1.2 model=1 kW=1.9470616935295264 kvar=0.6741359009557886 Phases=1 !yearly=res_kw_12045_pu

New Load.load_p1ulv2554_2 conn=wye bus1=p1ulv2553.2 kV=0.12 Vminpu=0.8 Vmaxpu=1.2 model=1 kW=1.9470616935295264 kvar=0.6741359009557886 Phases=1 !yearly=res_kw_12045_pu

New Load.load_p1ulv2555_1 conn=wye bus1=p1ulv2555.1 kV=0.12 Vminpu=0.8 Vmaxpu=1.2 model=1 kW=2.297832728168154 kvar=0.6109723215697453 Phases=1 !yearly=res_kw_7568_pu

New Load.load_p1ulv2555_2 conn=wye bus1=p1ulv2555.2 kV=0.12 Vminpu=0.8 Vmaxpu=1.2 model=1 kW=2.297832728168154 kvar=0.6109723215697453 Phases=1 !yearly=res_kw_7568_pu

New Load.load_p1ulv2556_1 conn=wye bus1=p1ulv2556.1 kV=0.12 Vminpu=0.8 Vmaxpu=1.2 model=1 kW=1.5573656346516838 kvar=0.5594661892352927 Phases=1 !yearly=res_kw_2816_pu

New Load.load_p1ulv2556_2 conn=wye bus1=p1ulv2556.2 kV=0.12 Vminpu=0.8 Vmaxpu=1.2 model=1 kW=1.5573656346516838 kvar=0.5594661892352927 Phases=1 !yearly=res_kw_2816_pu

New Load.load_p1ulv2557_1 conn=wye bus1=p1ulv2557.1 kV=0.12 Vminpu=0.8 Vmaxpu=1.2 model=1 kW=4.5272352454774865 kvar=1.913146278528592 Phases=1 !yearly=res_kw_7198_pu

New Load.load_p1ulv2557_2 conn=wye bus1=p1ulv2557.2 kV=0.12 Vminpu=0.8 Vmaxpu=1.2 model=1 kW=4.5272352454774865 kvar=1.913146278528592 Phases=1 !yearly=res_kw_7198_pu

New Load.load_p1ulv2558_1 conn=wye bus1=p1ulv2558.1 kV=0.12 Vminpu=0.8 Vmaxpu=1.2 model=1 kW=1.5924067901709626 kvar=0.46681640832512994 Phases=1 !yearly=res_kw_9813_pu

New Load.load_p1ulv2558_2 conn=wye bus1=p1ulv2558.2 kV=0.12 Vminpu=0.8 Vmaxpu=1.2 model=1 kW=1.5924067901709626 kvar=0.46681640832512994 Phases=1 !yearly=res_kw_9813_pu

New Load.load_p1ulv2559_1 conn=wye bus1=p1ulv2557.1 kV=0.12 Vminpu=0.8 Vmaxpu=1.2 model=1 kW=1.241801892330501 kvar=0.45459688794228914 Phases=1 !yearly=res_kw_13779_pu

New Load.load_p1ulv2559_2 conn=wye bus1=p1ulv2557.2 kV=0.12 Vminpu=0.8 Vmaxpu=1.2 model=1 kW=1.241801892330501 kvar=0.45459688794228914 Phases=1 !yearly=res_kw_13779_pu

New Load.load_p1ulv2560_1 conn=wye bus1=p1ulv2560.1 kV=0.12 Vminpu=0.8 Vmaxpu=1.2 model=1 kW=3.7342103049030033 kvar=0.6279673114571369 Phases=1 !yearly=res_kw_10497_pu

New Load.load_p1ulv2560_2 conn=wye bus1=p1ulv2560.2 kV=0.12 Vminpu=0.8 Vmaxpu=1.2 model=1 kW=3.7342103049030033 kvar=0.6279673114571369 Phases=1 !yearly=res_kw_10497_pu

New Load.load_p1ulv2561_1 conn=wye bus1=p1ulv2561.1 kV=0.12 Vminpu=0.8 Vmaxpu=1.2 model=1 kW=2.4314632561383354 kvar=0.8057714419020039 Phases=1 !yearly=res_kw_12617_pu

New Load.load_p1ulv2561_2 conn=wye bus1=p1ulv2561.2 kV=0.12 Vminpu=0.8 Vmaxpu=1.2 model=1 kW=2.4314632561383354 kvar=0.8057714419020039 Phases=1 !yearly=res_kw_12617_pu

New Load.load_p1ulv2562_1 conn=wye bus1=p1ulv2562.1 kV=0.12 Vminpu=0.8 Vmaxpu=1.2 model=1 kW=3.1849675940033944 kvar=0.34345381341271086 Phases=1 !yearly=res_kw_9681_pu

New Load.load_p1ulv2562_2 conn=wye bus1=p1ulv2562.2 kV=0.12 Vminpu=0.8 Vmaxpu=1.2 model=1 kW=3.1849675940033944 kvar=0.34345381341271086 Phases=1 !yearly=res_kw_9681_pu

New Load.load_p1ulv2563_1 conn=wye bus1=p1ulv2563.1 kV=0.12 Vminpu=0.8 Vmaxpu=1.2 model=1 kW=3.6765116618277647 kvar=0.6135234899022368 Phases=1 !yearly=res_kw_5128_pu

New Load.load_p1ulv2563_2 conn=wye bus1=p1ulv2563.2 kV=0.12 Vminpu=0.8 Vmaxpu=1.2 model=1 kW=3.6765116618277647 kvar=0.6135234899022368 Phases=1 !yearly=res_kw_5128_pu

New Load.load_p1ulv2564_1 conn=wye bus1=p1ulv2564.1 kV=0.12 Vminpu=0.8 Vmaxpu=1.2 model=1 kW=1.101351979265181 kvar=0.351458103940822 Phases=1 !yearly=res_kw_11315_pu

New Load.load_p1ulv2564_2 conn=wye bus1=p1ulv2564.2 kV=0.12 Vminpu=0.8 Vmaxpu=1.2 model=1 kW=1.101351979265181 kvar=0.351458103940822 Phases=1 !yearly=res_kw_11315_pu

New Load.load_p1ulv2565_1 conn=wye bus1=p1ulv2565.1 kV=0.12 Vminpu=0.8 Vmaxpu=1.2 model=1 kW=12.04656010928551 kvar=3.4965304530983885 Phases=1 !yearly=com_kw_35471_pu

New Load.load_p1ulv2565_2 conn=wye bus1=p1ulv2565.2 kV=0.12 Vminpu=0.8 Vmaxpu=1.2 model=1 kW=12.04656010928551 kvar=3.4965304530983885 Phases=1 !yearly=com_kw_35471_pu

New Load.load_p1ulv2566 conn=wye bus1=p1ulv2566.1.2.3 kV=0.48 Vminpu=0.8 Vmaxpu=1.2 model=1 kW=49.394790276305244 kvar=10.905139736073957 Phases=3 !yearly=res_kw_819_pu

New Load.load_p1ulv2567_1 conn=wye bus1=p1ulv2567.1 kV=0.12 Vminpu=0.8 Vmaxpu=1.2 model=1 kW=6.358041898496651 kvar=2.7447096454463282 Phases=1 !yearly=res_kw_7632_pu

New Load.load_p1ulv2567_2 conn=wye bus1=p1ulv2567.2 kV=0.12 Vminpu=0.8 Vmaxpu=1.2 model=1 kW=6.358041898496651 kvar=2.7447096454463282 Phases=1 !yearly=res_kw_7632_pu

New Load.load_p1ulv2568_1 conn=wye bus1=p1ulv2568.1 kV=0.12 Vminpu=0.8 Vmaxpu=1.2 model=1 kW=2.1698158732703443 kvar=0.8490689598373361 Phases=1 !yearly=res_kw_8743_pu

New Load.load_p1ulv2568_2 conn=wye bus1=p1ulv2568.2 kV=0.12 Vminpu=0.8 Vmaxpu=1.2 model=1 kW=2.1698158732703443 kvar=0.8490689598373361 Phases=1 !yearly=res_kw_8743_pu

New Load.load_p1ulv2569_1 conn=wye bus1=p1ulv2569.1 kV=0.12 Vminpu=0.8 Vmaxpu=1.2 model=1 kW=2.298373512871933 kvar=0.08780226018253445 Phases=1 !yearly=res_kw_12305_pu

New Load.load_p1ulv2569_2 conn=wye bus1=p1ulv2569.2 kV=0.12 Vminpu=0.8 Vmaxpu=1.2 model=1 kW=2.298373512871933 kvar=0.08780226018253445 Phases=1 !yearly=res_kw_12305_pu

New Load.load_p1ulv2570_1 conn=wye bus1=p1ulv2570.1 kV=0.12 Vminpu=0.8 Vmaxpu=1.2 model=1 kW=1.847785574134552 kvar=0.8442277107503726 Phases=1 !yearly=res_kw_1082_pu
