New Transformer.sb1_p1uhs2_1247_trans_29 phases=3 windings=2 wdg=1 conn=delta Kv=69.0 kva=16000.0 %R=0.370153834758116 bus=sb1_p1uhs2_1247_node_1_3 wdg=2 conn=wye Kv=12.47 kva=16000.0 %R=0.370153834758116 bus=sb1_p1uhs2_1247_node_1_4 XHL=6.731656556895932

